
---------- Begin Simulation Statistics ----------
final_tick                                 3335975500                       # Number of ticks from beginning of simulation (restored from checkpoints and never reset)
host_inst_rate                                 137378                       # Simulator instruction rate (inst/s)
host_mem_usage                                2243484                       # Number of bytes of host memory used
host_op_rate                                   162739                       # Simulator op (including micro ops) rate (op/s)
host_seconds                                     1.27                       # Real time elapsed on the host
host_tick_rate                             2626244897                       # Simulator tick rate (ticks/s)
sim_freq                                 1000000000000                       # Frequency of simulated ticks
sim_insts                                      174478                       # Number of instructions simulated
sim_ops                                        206713                       # Number of ops (including micro ops) simulated
sim_seconds                                  0.003336                       # Number of seconds simulated
sim_ticks                                  3335975500                       # Number of ticks simulated
system.cpu_cluster.cpus.branchPred.BTBCorrect            0                       # Number of correct BTB predictions (this stat may not work properly.
system.cpu_cluster.cpus.branchPred.BTBHitPct    23.083355                       # BTB Hit Percentage
system.cpu_cluster.cpus.branchPred.BTBHits        11595                       # Number of BTB hits
system.cpu_cluster.cpus.branchPred.BTBLookups        50231                       # Number of BTB lookups
system.cpu_cluster.cpus.branchPred.RASInCorrect            7                       # Number of incorrect RAS predictions.
system.cpu_cluster.cpus.branchPred.condIncorrect         6808                       # Number of conditional branches incorrect
system.cpu_cluster.cpus.branchPred.condPredicted        37465                       # Number of conditional branches predicted
system.cpu_cluster.cpus.branchPred.indirectHits         1772                       # Number of indirect target hits.
system.cpu_cluster.cpus.branchPred.indirectLookups         5512                       # Number of indirect predictor lookups.
system.cpu_cluster.cpus.branchPred.indirectMisses         3740                       # Number of indirect misses.
system.cpu_cluster.cpus.branchPred.lookups        60436                       # Number of BP lookups
system.cpu_cluster.cpus.branchPred.usedRAS         5785                       # Number of times the RAS was used to get a target.
system.cpu_cluster.cpus.branchPredindirectMispredicted          304                       # Number of mispredicted indirect branches.
system.cpu_cluster.cpus.committedInsts         174478                       # Number of instructions committed
system.cpu_cluster.cpus.committedOps           206713                       # Number of ops (including micro ops) committed
system.cpu_cluster.cpus.cpi                 76.478994                       # CPI: cycles per instruction
system.cpu_cluster.cpus.discardedOps            23510                       # Number of ops (including micro ops) which were discarded before commit
system.cpu_cluster.cpus.dtb.accesses                0                       # DTB accesses
system.cpu_cluster.cpus.dtb.align_faults            0                       # Number of TLB faults due to alignment restrictions
system.cpu_cluster.cpus.dtb.domain_faults            0                       # Number of TLB faults due to domain restrictions
system.cpu_cluster.cpus.dtb.flush_entries            0                       # Number of entries that have been flushed from TLB
system.cpu_cluster.cpus.dtb.flush_tlb               0                       # Number of times complete TLB was flushed
system.cpu_cluster.cpus.dtb.flush_tlb_asid            0                       # Number of times TLB was flushed by ASID
system.cpu_cluster.cpus.dtb.flush_tlb_mva            0                       # Number of times TLB was flushed by MVA
system.cpu_cluster.cpus.dtb.flush_tlb_mva_asid            0                       # Number of times TLB was flushed by MVA & ASID
system.cpu_cluster.cpus.dtb.hits                    0                       # DTB hits
system.cpu_cluster.cpus.dtb.inst_accesses            0                       # ITB inst accesses
system.cpu_cluster.cpus.dtb.inst_hits               0                       # ITB inst hits
system.cpu_cluster.cpus.dtb.inst_misses             0                       # ITB inst misses
system.cpu_cluster.cpus.dtb.misses                  0                       # DTB misses
system.cpu_cluster.cpus.dtb.perms_faults            0                       # Number of TLB faults due to permissions restrictions
system.cpu_cluster.cpus.dtb.prefetch_faults            0                       # Number of TLB faults due to prefetch
system.cpu_cluster.cpus.dtb.read_accesses            0                       # DTB read accesses
system.cpu_cluster.cpus.dtb.read_hits               0                       # DTB read hits
system.cpu_cluster.cpus.dtb.read_misses             0                       # DTB read misses
system.cpu_cluster.cpus.dtb.stage2_mmu.stage2_tlb.accesses            0                       # DTB accesses
system.cpu_cluster.cpus.dtb.stage2_mmu.stage2_tlb.align_faults            0                       # Number of TLB faults due to alignment restrictions
system.cpu_cluster.cpus.dtb.stage2_mmu.stage2_tlb.domain_faults            0                       # Number of TLB faults due to domain restrictions
system.cpu_cluster.cpus.dtb.stage2_mmu.stage2_tlb.flush_entries            0                       # Number of entries that have been flushed from TLB
system.cpu_cluster.cpus.dtb.stage2_mmu.stage2_tlb.flush_tlb            0                       # Number of times complete TLB was flushed
system.cpu_cluster.cpus.dtb.stage2_mmu.stage2_tlb.flush_tlb_asid            0                       # Number of times TLB was flushed by ASID
system.cpu_cluster.cpus.dtb.stage2_mmu.stage2_tlb.flush_tlb_mva            0                       # Number of times TLB was flushed by MVA
system.cpu_cluster.cpus.dtb.stage2_mmu.stage2_tlb.flush_tlb_mva_asid            0                       # Number of times TLB was flushed by MVA & ASID
system.cpu_cluster.cpus.dtb.stage2_mmu.stage2_tlb.hits            0                       # DTB hits
system.cpu_cluster.cpus.dtb.stage2_mmu.stage2_tlb.inst_accesses            0                       # ITB inst accesses
system.cpu_cluster.cpus.dtb.stage2_mmu.stage2_tlb.inst_hits            0                       # ITB inst hits
system.cpu_cluster.cpus.dtb.stage2_mmu.stage2_tlb.inst_misses            0                       # ITB inst misses
system.cpu_cluster.cpus.dtb.stage2_mmu.stage2_tlb.misses            0                       # DTB misses
system.cpu_cluster.cpus.dtb.stage2_mmu.stage2_tlb.perms_faults            0                       # Number of TLB faults due to permissions restrictions
system.cpu_cluster.cpus.dtb.stage2_mmu.stage2_tlb.prefetch_faults            0                       # Number of TLB faults due to prefetch
system.cpu_cluster.cpus.dtb.stage2_mmu.stage2_tlb.read_accesses            0                       # DTB read accesses
system.cpu_cluster.cpus.dtb.stage2_mmu.stage2_tlb.read_hits            0                       # DTB read hits
system.cpu_cluster.cpus.dtb.stage2_mmu.stage2_tlb.read_misses            0                       # DTB read misses
system.cpu_cluster.cpus.dtb.stage2_mmu.stage2_tlb.walker.walkRequestOrigin_Requested::Data            0                       # Table walker requests started/completed, data/inst
system.cpu_cluster.cpus.dtb.stage2_mmu.stage2_tlb.walker.walkRequestOrigin_Requested::Inst            0                       # Table walker requests started/completed, data/inst
system.cpu_cluster.cpus.dtb.stage2_mmu.stage2_tlb.walker.walkRequestOrigin_Requested::total            0                       # Table walker requests started/completed, data/inst
system.cpu_cluster.cpus.dtb.stage2_mmu.stage2_tlb.walker.walkRequestOrigin_Completed::Data            0                       # Table walker requests started/completed, data/inst
system.cpu_cluster.cpus.dtb.stage2_mmu.stage2_tlb.walker.walkRequestOrigin_Completed::Inst            0                       # Table walker requests started/completed, data/inst
system.cpu_cluster.cpus.dtb.stage2_mmu.stage2_tlb.walker.walkRequestOrigin_Completed::total            0                       # Table walker requests started/completed, data/inst
system.cpu_cluster.cpus.dtb.stage2_mmu.stage2_tlb.walker.walkRequestOrigin::total            0                       # Table walker requests started/completed, data/inst
system.cpu_cluster.cpus.dtb.stage2_mmu.stage2_tlb.walker.walks            0                       # Table walker walks requested
system.cpu_cluster.cpus.dtb.stage2_mmu.stage2_tlb.write_accesses            0                       # DTB write accesses
system.cpu_cluster.cpus.dtb.stage2_mmu.stage2_tlb.write_hits            0                       # DTB write hits
system.cpu_cluster.cpus.dtb.stage2_mmu.stage2_tlb.write_misses            0                       # DTB write misses
system.cpu_cluster.cpus.dtb.walker.walkRequestOrigin_Requested::Data            0                       # Table walker requests started/completed, data/inst
system.cpu_cluster.cpus.dtb.walker.walkRequestOrigin_Requested::Inst            0                       # Table walker requests started/completed, data/inst
system.cpu_cluster.cpus.dtb.walker.walkRequestOrigin_Requested::total            0                       # Table walker requests started/completed, data/inst
system.cpu_cluster.cpus.dtb.walker.walkRequestOrigin_Completed::Data            0                       # Table walker requests started/completed, data/inst
system.cpu_cluster.cpus.dtb.walker.walkRequestOrigin_Completed::Inst            0                       # Table walker requests started/completed, data/inst
system.cpu_cluster.cpus.dtb.walker.walkRequestOrigin_Completed::total            0                       # Table walker requests started/completed, data/inst
system.cpu_cluster.cpus.dtb.walker.walkRequestOrigin::total            0                       # Table walker requests started/completed, data/inst
system.cpu_cluster.cpus.dtb.walker.walks            0                       # Table walker walks requested
system.cpu_cluster.cpus.dtb.write_accesses            0                       # DTB write accesses
system.cpu_cluster.cpus.dtb.write_hits              0                       # DTB write hits
system.cpu_cluster.cpus.dtb.write_misses            0                       # DTB write misses
system.cpu_cluster.cpus.fetch2.amo_instructions            0                       # Number of memory atomic instructions successfully decoded
system.cpu_cluster.cpus.fetch2.fp_instructions            0                       # Number of floating point instructions successfully decoded
system.cpu_cluster.cpus.fetch2.int_instructions       147084                       # Number of integer instructions successfully decoded
system.cpu_cluster.cpus.fetch2.load_instructions        40093                       # Number of memory load instructions successfully decoded
system.cpu_cluster.cpus.fetch2.store_instructions        20439                       # Number of memory store instructions successfully decoded
system.cpu_cluster.cpus.fetch2.vec_instructions            0                       # Number of SIMD instructions successfully decoded
system.cpu_cluster.cpus.idleCycles           12752406                       # Total number of cycles that the object has spent stopped
system.cpu_cluster.cpus.ipc                  0.013075                       # IPC: instructions per cycle
system.cpu_cluster.cpus.itb.accesses                0                       # DTB accesses
system.cpu_cluster.cpus.itb.align_faults            0                       # Number of TLB faults due to alignment restrictions
system.cpu_cluster.cpus.itb.domain_faults            0                       # Number of TLB faults due to domain restrictions
system.cpu_cluster.cpus.itb.flush_entries            0                       # Number of entries that have been flushed from TLB
system.cpu_cluster.cpus.itb.flush_tlb               0                       # Number of times complete TLB was flushed
system.cpu_cluster.cpus.itb.flush_tlb_asid            0                       # Number of times TLB was flushed by ASID
system.cpu_cluster.cpus.itb.flush_tlb_mva            0                       # Number of times TLB was flushed by MVA
system.cpu_cluster.cpus.itb.flush_tlb_mva_asid            0                       # Number of times TLB was flushed by MVA & ASID
system.cpu_cluster.cpus.itb.hits                    0                       # DTB hits
system.cpu_cluster.cpus.itb.inst_accesses            0                       # ITB inst accesses
system.cpu_cluster.cpus.itb.inst_hits               0                       # ITB inst hits
system.cpu_cluster.cpus.itb.inst_misses             0                       # ITB inst misses
system.cpu_cluster.cpus.itb.misses                  0                       # DTB misses
system.cpu_cluster.cpus.itb.perms_faults            0                       # Number of TLB faults due to permissions restrictions
system.cpu_cluster.cpus.itb.prefetch_faults            0                       # Number of TLB faults due to prefetch
system.cpu_cluster.cpus.itb.read_accesses            0                       # DTB read accesses
system.cpu_cluster.cpus.itb.read_hits               0                       # DTB read hits
system.cpu_cluster.cpus.itb.read_misses             0                       # DTB read misses
system.cpu_cluster.cpus.itb.stage2_mmu.stage2_tlb.accesses            0                       # DTB accesses
system.cpu_cluster.cpus.itb.stage2_mmu.stage2_tlb.align_faults            0                       # Number of TLB faults due to alignment restrictions
system.cpu_cluster.cpus.itb.stage2_mmu.stage2_tlb.domain_faults            0                       # Number of TLB faults due to domain restrictions
system.cpu_cluster.cpus.itb.stage2_mmu.stage2_tlb.flush_entries            0                       # Number of entries that have been flushed from TLB
system.cpu_cluster.cpus.itb.stage2_mmu.stage2_tlb.flush_tlb            0                       # Number of times complete TLB was flushed
system.cpu_cluster.cpus.itb.stage2_mmu.stage2_tlb.flush_tlb_asid            0                       # Number of times TLB was flushed by ASID
system.cpu_cluster.cpus.itb.stage2_mmu.stage2_tlb.flush_tlb_mva            0                       # Number of times TLB was flushed by MVA
system.cpu_cluster.cpus.itb.stage2_mmu.stage2_tlb.flush_tlb_mva_asid            0                       # Number of times TLB was flushed by MVA & ASID
system.cpu_cluster.cpus.itb.stage2_mmu.stage2_tlb.hits            0                       # DTB hits
system.cpu_cluster.cpus.itb.stage2_mmu.stage2_tlb.inst_accesses            0                       # ITB inst accesses
system.cpu_cluster.cpus.itb.stage2_mmu.stage2_tlb.inst_hits            0                       # ITB inst hits
system.cpu_cluster.cpus.itb.stage2_mmu.stage2_tlb.inst_misses            0                       # ITB inst misses
system.cpu_cluster.cpus.itb.stage2_mmu.stage2_tlb.misses            0                       # DTB misses
system.cpu_cluster.cpus.itb.stage2_mmu.stage2_tlb.perms_faults            0                       # Number of TLB faults due to permissions restrictions
system.cpu_cluster.cpus.itb.stage2_mmu.stage2_tlb.prefetch_faults            0                       # Number of TLB faults due to prefetch
system.cpu_cluster.cpus.itb.stage2_mmu.stage2_tlb.read_accesses            0                       # DTB read accesses
system.cpu_cluster.cpus.itb.stage2_mmu.stage2_tlb.read_hits            0                       # DTB read hits
system.cpu_cluster.cpus.itb.stage2_mmu.stage2_tlb.read_misses            0                       # DTB read misses
system.cpu_cluster.cpus.itb.stage2_mmu.stage2_tlb.walker.walkRequestOrigin_Requested::Data            0                       # Table walker requests started/completed, data/inst
system.cpu_cluster.cpus.itb.stage2_mmu.stage2_tlb.walker.walkRequestOrigin_Requested::Inst            0                       # Table walker requests started/completed, data/inst
system.cpu_cluster.cpus.itb.stage2_mmu.stage2_tlb.walker.walkRequestOrigin_Requested::total            0                       # Table walker requests started/completed, data/inst
system.cpu_cluster.cpus.itb.stage2_mmu.stage2_tlb.walker.walkRequestOrigin_Completed::Data            0                       # Table walker requests started/completed, data/inst
system.cpu_cluster.cpus.itb.stage2_mmu.stage2_tlb.walker.walkRequestOrigin_Completed::Inst            0                       # Table walker requests started/completed, data/inst
system.cpu_cluster.cpus.itb.stage2_mmu.stage2_tlb.walker.walkRequestOrigin_Completed::total            0                       # Table walker requests started/completed, data/inst
system.cpu_cluster.cpus.itb.stage2_mmu.stage2_tlb.walker.walkRequestOrigin::total            0                       # Table walker requests started/completed, data/inst
system.cpu_cluster.cpus.itb.stage2_mmu.stage2_tlb.walker.walks            0                       # Table walker walks requested
system.cpu_cluster.cpus.itb.stage2_mmu.stage2_tlb.write_accesses            0                       # DTB write accesses
system.cpu_cluster.cpus.itb.stage2_mmu.stage2_tlb.write_hits            0                       # DTB write hits
system.cpu_cluster.cpus.itb.stage2_mmu.stage2_tlb.write_misses            0                       # DTB write misses
system.cpu_cluster.cpus.itb.walker.walkRequestOrigin_Requested::Data            0                       # Table walker requests started/completed, data/inst
system.cpu_cluster.cpus.itb.walker.walkRequestOrigin_Requested::Inst            0                       # Table walker requests started/completed, data/inst
system.cpu_cluster.cpus.itb.walker.walkRequestOrigin_Requested::total            0                       # Table walker requests started/completed, data/inst
system.cpu_cluster.cpus.itb.walker.walkRequestOrigin_Completed::Data            0                       # Table walker requests started/completed, data/inst
system.cpu_cluster.cpus.itb.walker.walkRequestOrigin_Completed::Inst            0                       # Table walker requests started/completed, data/inst
system.cpu_cluster.cpus.itb.walker.walkRequestOrigin_Completed::total            0                       # Table walker requests started/completed, data/inst
system.cpu_cluster.cpus.itb.walker.walkRequestOrigin::total            0                       # Table walker requests started/completed, data/inst
system.cpu_cluster.cpus.itb.walker.walks            0                       # Table walker walks requested
system.cpu_cluster.cpus.itb.write_accesses            0                       # DTB write accesses
system.cpu_cluster.cpus.itb.write_hits              0                       # DTB write hits
system.cpu_cluster.cpus.itb.write_misses            0                       # DTB write misses
system.cpu_cluster.cpus.numCycles            13343902                       # number of cpu cycles simulated
system.cpu_cluster.cpus.numFetchSuspends            0                       # Number of times Execute suspended instruction fetching
system.cpu_cluster.cpus.numWorkItemsCompleted            0                       # number of work items this cpu completed
system.cpu_cluster.cpus.numWorkItemsStarted            0                       # number of work items this cpu started
system.cpu_cluster.cpus.op_class_0::No_OpClass            0      0.00%      0.00% # Class of committed instruction
system.cpu_cluster.cpus.op_class_0::IntAlu       137589     66.56%     66.56% # Class of committed instruction
system.cpu_cluster.cpus.op_class_0::IntMult         2280      1.10%     67.66% # Class of committed instruction
system.cpu_cluster.cpus.op_class_0::IntDiv            0      0.00%     67.66% # Class of committed instruction
system.cpu_cluster.cpus.op_class_0::FloatAdd            0      0.00%     67.66% # Class of committed instruction
system.cpu_cluster.cpus.op_class_0::FloatCmp            0      0.00%     67.66% # Class of committed instruction
system.cpu_cluster.cpus.op_class_0::FloatCvt            0      0.00%     67.66% # Class of committed instruction
system.cpu_cluster.cpus.op_class_0::FloatMult            0      0.00%     67.66% # Class of committed instruction
system.cpu_cluster.cpus.op_class_0::FloatMultAcc            0      0.00%     67.66% # Class of committed instruction
system.cpu_cluster.cpus.op_class_0::FloatDiv            0      0.00%     67.66% # Class of committed instruction
system.cpu_cluster.cpus.op_class_0::FloatMisc            0      0.00%     67.66% # Class of committed instruction
system.cpu_cluster.cpus.op_class_0::FloatSqrt            0      0.00%     67.66% # Class of committed instruction
system.cpu_cluster.cpus.op_class_0::SimdAdd            0      0.00%     67.66% # Class of committed instruction
system.cpu_cluster.cpus.op_class_0::SimdAddAcc            0      0.00%     67.66% # Class of committed instruction
system.cpu_cluster.cpus.op_class_0::SimdAlu            0      0.00%     67.66% # Class of committed instruction
system.cpu_cluster.cpus.op_class_0::SimdCmp            0      0.00%     67.66% # Class of committed instruction
system.cpu_cluster.cpus.op_class_0::SimdCvt            0      0.00%     67.66% # Class of committed instruction
system.cpu_cluster.cpus.op_class_0::SimdMisc            0      0.00%     67.66% # Class of committed instruction
system.cpu_cluster.cpus.op_class_0::SimdMult            0      0.00%     67.66% # Class of committed instruction
system.cpu_cluster.cpus.op_class_0::SimdMultAcc            0      0.00%     67.66% # Class of committed instruction
system.cpu_cluster.cpus.op_class_0::SimdShift            0      0.00%     67.66% # Class of committed instruction
system.cpu_cluster.cpus.op_class_0::SimdShiftAcc            0      0.00%     67.66% # Class of committed instruction
system.cpu_cluster.cpus.op_class_0::SimdDiv            0      0.00%     67.66% # Class of committed instruction
system.cpu_cluster.cpus.op_class_0::SimdSqrt            0      0.00%     67.66% # Class of committed instruction
system.cpu_cluster.cpus.op_class_0::SimdFloatAdd            0      0.00%     67.66% # Class of committed instruction
system.cpu_cluster.cpus.op_class_0::SimdFloatAlu            0      0.00%     67.66% # Class of committed instruction
system.cpu_cluster.cpus.op_class_0::SimdFloatCmp            0      0.00%     67.66% # Class of committed instruction
system.cpu_cluster.cpus.op_class_0::SimdFloatCvt            0      0.00%     67.66% # Class of committed instruction
system.cpu_cluster.cpus.op_class_0::SimdFloatDiv            0      0.00%     67.66% # Class of committed instruction
system.cpu_cluster.cpus.op_class_0::SimdFloatMisc            1      0.00%     67.66% # Class of committed instruction
system.cpu_cluster.cpus.op_class_0::SimdFloatMult            0      0.00%     67.66% # Class of committed instruction
system.cpu_cluster.cpus.op_class_0::SimdFloatMultAcc            0      0.00%     67.66% # Class of committed instruction
system.cpu_cluster.cpus.op_class_0::SimdFloatSqrt            0      0.00%     67.66% # Class of committed instruction
system.cpu_cluster.cpus.op_class_0::SimdReduceAdd            0      0.00%     67.66% # Class of committed instruction
system.cpu_cluster.cpus.op_class_0::SimdReduceAlu            0      0.00%     67.66% # Class of committed instruction
system.cpu_cluster.cpus.op_class_0::SimdReduceCmp            0      0.00%     67.66% # Class of committed instruction
system.cpu_cluster.cpus.op_class_0::SimdFloatReduceAdd            0      0.00%     67.66% # Class of committed instruction
system.cpu_cluster.cpus.op_class_0::SimdFloatReduceCmp            0      0.00%     67.66% # Class of committed instruction
system.cpu_cluster.cpus.op_class_0::SimdAes            0      0.00%     67.66% # Class of committed instruction
system.cpu_cluster.cpus.op_class_0::SimdAesMix            0      0.00%     67.66% # Class of committed instruction
system.cpu_cluster.cpus.op_class_0::SimdSha1Hash            0      0.00%     67.66% # Class of committed instruction
system.cpu_cluster.cpus.op_class_0::SimdSha1Hash2            0      0.00%     67.66% # Class of committed instruction
system.cpu_cluster.cpus.op_class_0::SimdSha256Hash            0      0.00%     67.66% # Class of committed instruction
system.cpu_cluster.cpus.op_class_0::SimdSha256Hash2            0      0.00%     67.66% # Class of committed instruction
system.cpu_cluster.cpus.op_class_0::SimdShaSigma2            0      0.00%     67.66% # Class of committed instruction
system.cpu_cluster.cpus.op_class_0::SimdShaSigma3            0      0.00%     67.66% # Class of committed instruction
system.cpu_cluster.cpus.op_class_0::SimdPredAlu            0      0.00%     67.66% # Class of committed instruction
system.cpu_cluster.cpus.op_class_0::MemRead        36600     17.71%     85.37% # Class of committed instruction
system.cpu_cluster.cpus.op_class_0::MemWrite        30243     14.63%    100.00% # Class of committed instruction
system.cpu_cluster.cpus.op_class_0::FloatMemRead            0      0.00%    100.00% # Class of committed instruction
system.cpu_cluster.cpus.op_class_0::FloatMemWrite            0      0.00%    100.00% # Class of committed instruction
system.cpu_cluster.cpus.op_class_0::IprAccess            0      0.00%    100.00% # Class of committed instruction
system.cpu_cluster.cpus.op_class_0::InstPrefetch            0      0.00%    100.00% # Class of committed instruction
system.cpu_cluster.cpus.op_class_0::total       206713                       # Class of committed instruction
system.cpu_cluster.cpus.tickCycles             591496                       # Number of cycles that the object actually ticked
system.cpu_cluster.cpus.workload.numSyscalls          213                       # Number of system calls
system.membus.snoop_filter.hit_multi_requests            0                       # Number of requests hitting in the snoop filter with multiple (>1) holders of the requested data.
system.membus.snoop_filter.hit_multi_snoops            0                       # Number of snoops hitting in the snoop filter with multiple (>1) holders of the requested data.
system.membus.snoop_filter.hit_single_requests            0                       # Number of requests hitting in the snoop filter with a single holder of the requested data.
system.membus.snoop_filter.hit_single_snoops            0                       # Number of snoops hitting in the snoop filter with a single holder of the requested data.
system.membus.snoop_filter.tot_requests             0                       # Total number of requests made to the snoop filter.
system.membus.snoop_filter.tot_snoops               0                       # Total number of snoops made to the snoop filter.
system.membus.pwrStateResidencyTicks::UNDEFINED   3335975500                       # Cumulative time (in ticks) in various power states
system.membus.trans_dist::ReadReq               94302                       # Transaction distribution
system.membus.trans_dist::ReadResp              94721                       # Transaction distribution
system.membus.trans_dist::WriteReq              28896                       # Transaction distribution
system.membus.trans_dist::WriteResp             28895                       # Transaction distribution
system.membus.trans_dist::SoftPFReq                36                       # Transaction distribution
system.membus.trans_dist::SoftPFResp               36                       # Transaction distribution
system.membus.trans_dist::LoadLockedReq           420                       # Transaction distribution
system.membus.trans_dist::StoreCondReq            420                       # Transaction distribution
system.membus.trans_dist::StoreCondResp           420                       # Transaction distribution
system.membus.pkt_count_system.cpu_cluster.cpus.fetch1.icache_port::system.mem_ctrls0.port        58538                       # Packet count per connected master and slave (bytes)
system.membus.pkt_count_system.cpu_cluster.cpus.fetch1.icache_port::system.mem_ctrls1.port        57789                       # Packet count per connected master and slave (bytes)
system.membus.pkt_count_system.cpu_cluster.cpus.fetch1.icache_port::total       116327                       # Packet count per connected master and slave (bytes)
system.membus.pkt_count_system.cpu_cluster.cpus.execute.dcache_port::system.mem_ctrls0.port        66092                       # Packet count per connected master and slave (bytes)
system.membus.pkt_count_system.cpu_cluster.cpus.execute.dcache_port::system.mem_ctrls1.port        65727                       # Packet count per connected master and slave (bytes)
system.membus.pkt_count_system.cpu_cluster.cpus.execute.dcache_port::total       131819                       # Packet count per connected master and slave (bytes)
system.membus.pkt_count::total                 248146                       # Packet count per connected master and slave (bytes)
system.membus.pkt_size_system.cpu_cluster.cpus.fetch1.icache_port::system.mem_ctrls0.port      1873216                       # Cumulative packet size per connected master and slave (bytes)
system.membus.pkt_size_system.cpu_cluster.cpus.fetch1.icache_port::system.mem_ctrls1.port      1849216                       # Cumulative packet size per connected master and slave (bytes)
system.membus.pkt_size_system.cpu_cluster.cpus.fetch1.icache_port::total      3722432                       # Cumulative packet size per connected master and slave (bytes)
system.membus.pkt_size_system.cpu_cluster.cpus.execute.dcache_port::system.mem_ctrls0.port       144784                       # Cumulative packet size per connected master and slave (bytes)
system.membus.pkt_size_system.cpu_cluster.cpus.execute.dcache_port::system.mem_ctrls1.port       140629                       # Cumulative packet size per connected master and slave (bytes)
system.membus.pkt_size_system.cpu_cluster.cpus.execute.dcache_port::total       285413                       # Cumulative packet size per connected master and slave (bytes)
system.membus.pkt_size::total                 4007845                       # Cumulative packet size per connected master and slave (bytes)
system.membus.snoops                                0                       # Total snoops (count)
system.membus.snoopTraffic                          0                       # Total snoop traffic (bytes)
system.membus.snoop_fanout::samples            124074                       # Request fanout histogram
system.membus.snoop_fanout::mean                    0                       # Request fanout histogram
system.membus.snoop_fanout::stdev                   0                       # Request fanout histogram
system.membus.snoop_fanout::underflows              0      0.00%      0.00% # Request fanout histogram
system.membus.snoop_fanout::0                  124074    100.00%    100.00% # Request fanout histogram
system.membus.snoop_fanout::1                       0      0.00%    100.00% # Request fanout histogram
system.membus.snoop_fanout::overflows               0      0.00%    100.00% # Request fanout histogram
system.membus.snoop_fanout::min_value               0                       # Request fanout histogram
system.membus.snoop_fanout::max_value               0                       # Request fanout histogram
system.membus.snoop_fanout::total              124074                       # Request fanout histogram
system.membus.reqLayer0.occupancy           104948500                       # Layer occupancy (ticks)
system.membus.reqLayer0.utilization               3.1                       # Layer utilization (%)
system.membus.reqLayer1.occupancy           103623500                       # Layer occupancy (ticks)
system.membus.reqLayer1.utilization               3.1                       # Layer utilization (%)
system.membus.respLayer1.occupancy          307990250                       # Layer occupancy (ticks)
system.membus.respLayer1.utilization              9.2                       # Layer utilization (%)
system.membus.respLayer2.occupancy          114709500                       # Layer occupancy (ticks)
system.membus.respLayer2.utilization              3.4                       # Layer utilization (%)
system.voltage_domain.voltage                3.300000                       # Voltage in Volts
system.mem_ctrls0.pwrStateResidencyTicks::UNDEFINED   3335975500                       # Cumulative time (in ticks) in various power states
system.mem_ctrls0.bytes_read::.cpu_cluster.cpus.inst      1873216                       # Number of bytes read from this memory
system.mem_ctrls0.bytes_read::.cpu_cluster.cpus.data        85426                       # Number of bytes read from this memory
system.mem_ctrls0.bytes_read::total           1958642                       # Number of bytes read from this memory
system.mem_ctrls0.bytes_inst_read::.cpu_cluster.cpus.inst      1873216                       # Number of instructions bytes read from this memory
system.mem_ctrls0.bytes_inst_read::total      1873216                       # Number of instructions bytes read from this memory
system.mem_ctrls0.bytes_written::.cpu_cluster.cpus.data        59358                       # Number of bytes written to this memory
system.mem_ctrls0.bytes_written::total          59358                       # Number of bytes written to this memory
system.mem_ctrls0.num_reads::.cpu_cluster.cpus.inst        29269                       # Number of read requests responded to by this memory
system.mem_ctrls0.num_reads::.cpu_cluster.cpus.data        18248                       # Number of read requests responded to by this memory
system.mem_ctrls0.num_reads::total              47517                       # Number of read requests responded to by this memory
system.mem_ctrls0.num_writes::.cpu_cluster.cpus.data        14798                       # Number of write requests responded to by this memory
system.mem_ctrls0.num_writes::total             14798                       # Number of write requests responded to by this memory
system.mem_ctrls0.bw_read::.cpu_cluster.cpus.inst    561519711                       # Total read bandwidth from this memory (bytes/s)
system.mem_ctrls0.bw_read::.cpu_cluster.cpus.data     25607502                       # Total read bandwidth from this memory (bytes/s)
system.mem_ctrls0.bw_read::total            587127214                       # Total read bandwidth from this memory (bytes/s)
system.mem_ctrls0.bw_inst_read::.cpu_cluster.cpus.inst    561519711                       # Instruction read bandwidth from this memory (bytes/s)
system.mem_ctrls0.bw_inst_read::total       561519711                       # Instruction read bandwidth from this memory (bytes/s)
system.mem_ctrls0.bw_write::.cpu_cluster.cpus.data     17793296                       # Write bandwidth from this memory (bytes/s)
system.mem_ctrls0.bw_write::total            17793296                       # Write bandwidth from this memory (bytes/s)
system.mem_ctrls0.bw_total::.cpu_cluster.cpus.inst    561519711                       # Total bandwidth to/from this memory (bytes/s)
system.mem_ctrls0.bw_total::.cpu_cluster.cpus.data     43400798                       # Total bandwidth to/from this memory (bytes/s)
system.mem_ctrls0.bw_total::total           604920510                       # Total bandwidth to/from this memory (bytes/s)
system.mem_ctrls0.avgPriority_.cpu_cluster.cpus.inst::samples     29269.00                       # Average QoS priority value for accepted requests
system.mem_ctrls0.avgPriority_.cpu_cluster.cpus.data::samples     16422.00                       # Average QoS priority value for accepted requests
system.mem_ctrls0.priorityMinLatency     0.000000018750                       # per QoS priority minimum request to response latency (s)
system.mem_ctrls0.priorityMaxLatency     0.000291935750                       # per QoS priority maximum request to response latency (s)
system.mem_ctrls0.numReadWriteTurnArounds            2                       # Number of turnarounds from READ to WRITE
system.mem_ctrls0.numWriteReadTurnArounds            2                       # Number of turnarounds from WRITE to READ
system.mem_ctrls0.numStayReadState             106239                       # Number of times bus staying in READ state
system.mem_ctrls0.numStayWriteState                32                       # Number of times bus staying in WRITE state
system.mem_ctrls0.readReqs                      47517                       # Number of read requests accepted
system.mem_ctrls0.writeReqs                     14798                       # Number of write requests accepted
system.mem_ctrls0.readBursts                    47517                       # Number of DRAM read bursts, including those serviced by the write queue
system.mem_ctrls0.writeBursts                   14798                       # Number of DRAM write bursts, including those merged in the write queue
system.mem_ctrls0.servicedByWrQ                  1888                       # Number of DRAM read bursts serviced by the write queue
system.mem_ctrls0.mergedWrBursts                14736                       # Number of DRAM write bursts merged with an existing one
system.mem_ctrls0.neitherReadNorWriteReqs            0                       # Number of requests that are neither read nor write
system.mem_ctrls0.perBankRdBursts::0             1851                       # Per bank write bursts
system.mem_ctrls0.perBankRdBursts::1             8990                       # Per bank write bursts
system.mem_ctrls0.perBankRdBursts::2              202                       # Per bank write bursts
system.mem_ctrls0.perBankRdBursts::3            10577                       # Per bank write bursts
system.mem_ctrls0.perBankRdBursts::4            10650                       # Per bank write bursts
system.mem_ctrls0.perBankRdBursts::5               29                       # Per bank write bursts
system.mem_ctrls0.perBankRdBursts::6                4                       # Per bank write bursts
system.mem_ctrls0.perBankRdBursts::7             9629                       # Per bank write bursts
system.mem_ctrls0.perBankRdBursts::8                0                       # Per bank write bursts
system.mem_ctrls0.perBankRdBursts::9                7                       # Per bank write bursts
system.mem_ctrls0.perBankRdBursts::10             101                       # Per bank write bursts
system.mem_ctrls0.perBankRdBursts::11             315                       # Per bank write bursts
system.mem_ctrls0.perBankRdBursts::12            1982                       # Per bank write bursts
system.mem_ctrls0.perBankRdBursts::13            1236                       # Per bank write bursts
system.mem_ctrls0.perBankRdBursts::14              56                       # Per bank write bursts
system.mem_ctrls0.perBankRdBursts::15               0                       # Per bank write bursts
system.mem_ctrls0.perBankWrBursts::0                0                       # Per bank write bursts
system.mem_ctrls0.perBankWrBursts::1                0                       # Per bank write bursts
system.mem_ctrls0.perBankWrBursts::2                0                       # Per bank write bursts
system.mem_ctrls0.perBankWrBursts::3               15                       # Per bank write bursts
system.mem_ctrls0.perBankWrBursts::4               19                       # Per bank write bursts
system.mem_ctrls0.perBankWrBursts::5                0                       # Per bank write bursts
system.mem_ctrls0.perBankWrBursts::6                0                       # Per bank write bursts
system.mem_ctrls0.perBankWrBursts::7                0                       # Per bank write bursts
system.mem_ctrls0.perBankWrBursts::8                0                       # Per bank write bursts
system.mem_ctrls0.perBankWrBursts::9                0                       # Per bank write bursts
system.mem_ctrls0.perBankWrBursts::10               0                       # Per bank write bursts
system.mem_ctrls0.perBankWrBursts::11               0                       # Per bank write bursts
system.mem_ctrls0.perBankWrBursts::12               0                       # Per bank write bursts
system.mem_ctrls0.perBankWrBursts::13               0                       # Per bank write bursts
system.mem_ctrls0.perBankWrBursts::14               0                       # Per bank write bursts
system.mem_ctrls0.perBankWrBursts::15               0                       # Per bank write bursts
system.mem_ctrls0.avgRdQLen                      1.22                       # Average read queue length when enqueuing
system.mem_ctrls0.avgWrQLen                     22.55                       # Average write queue length when enqueuing
system.mem_ctrls0.totQLat                   254622500                       # Total ticks spent queuing
system.mem_ctrls0.totBusLat                 228145000                       # Total ticks spent in databus transfers
system.mem_ctrls0.totMemAccLat             1110166250                       # Total ticks spent from burst creation until serviced by the DRAM
system.mem_ctrls0.avgQLat                     5580.28                       # Average queueing delay per DRAM burst
system.mem_ctrls0.avgBusLat                   5000.00                       # Average bus latency per DRAM burst
system.mem_ctrls0.avgMemAccLat               24330.28                       # Average memory access latency per DRAM burst
system.mem_ctrls0.numRdRetry                        0                       # Number of times read queue was full causing retry
system.mem_ctrls0.numWrRetry                        0                       # Number of times write queue was full causing retry
system.mem_ctrls0.readRowHits                   38693                       # Number of row buffer hits during reads
system.mem_ctrls0.writeRowHits                     33                       # Number of row buffer hits during writes
system.mem_ctrls0.readRowHitRate                84.80                       # Row buffer hit rate for reads
system.mem_ctrls0.writeRowHitRate               53.23                       # Row buffer hit rate for writes
system.mem_ctrls0.readPktSize::0                 1178                       # Read request sizes (log2)
system.mem_ctrls0.readPktSize::1                  314                       # Read request sizes (log2)
system.mem_ctrls0.readPktSize::2                12607                       # Read request sizes (log2)
system.mem_ctrls0.readPktSize::3                 4149                       # Read request sizes (log2)
system.mem_ctrls0.readPktSize::4                    0                       # Read request sizes (log2)
system.mem_ctrls0.readPktSize::5                    0                       # Read request sizes (log2)
system.mem_ctrls0.readPktSize::6                29269                       # Read request sizes (log2)
system.mem_ctrls0.writePktSize::0                 886                       # Write request sizes (log2)
system.mem_ctrls0.writePktSize::1                   8                       # Write request sizes (log2)
system.mem_ctrls0.writePktSize::2               13194                       # Write request sizes (log2)
system.mem_ctrls0.writePktSize::3                 710                       # Write request sizes (log2)
system.mem_ctrls0.writePktSize::4                   0                       # Write request sizes (log2)
system.mem_ctrls0.writePktSize::5                   0                       # Write request sizes (log2)
system.mem_ctrls0.writePktSize::6                   0                       # Write request sizes (log2)
system.mem_ctrls0.rdQLenPdf::0                  38285                       # What read queue length does an incoming req see
system.mem_ctrls0.rdQLenPdf::1                   6960                       # What read queue length does an incoming req see
system.mem_ctrls0.rdQLenPdf::2                    384                       # What read queue length does an incoming req see
system.mem_ctrls0.rdQLenPdf::3                      0                       # What read queue length does an incoming req see
system.mem_ctrls0.rdQLenPdf::4                      0                       # What read queue length does an incoming req see
system.mem_ctrls0.rdQLenPdf::5                      0                       # What read queue length does an incoming req see
system.mem_ctrls0.rdQLenPdf::6                      0                       # What read queue length does an incoming req see
system.mem_ctrls0.rdQLenPdf::7                      0                       # What read queue length does an incoming req see
system.mem_ctrls0.rdQLenPdf::8                      0                       # What read queue length does an incoming req see
system.mem_ctrls0.rdQLenPdf::9                      0                       # What read queue length does an incoming req see
system.mem_ctrls0.rdQLenPdf::10                     0                       # What read queue length does an incoming req see
system.mem_ctrls0.rdQLenPdf::11                     0                       # What read queue length does an incoming req see
system.mem_ctrls0.rdQLenPdf::12                     0                       # What read queue length does an incoming req see
system.mem_ctrls0.rdQLenPdf::13                     0                       # What read queue length does an incoming req see
system.mem_ctrls0.rdQLenPdf::14                     0                       # What read queue length does an incoming req see
system.mem_ctrls0.rdQLenPdf::15                     0                       # What read queue length does an incoming req see
system.mem_ctrls0.rdQLenPdf::16                     0                       # What read queue length does an incoming req see
system.mem_ctrls0.rdQLenPdf::17                     0                       # What read queue length does an incoming req see
system.mem_ctrls0.rdQLenPdf::18                     0                       # What read queue length does an incoming req see
system.mem_ctrls0.rdQLenPdf::19                     0                       # What read queue length does an incoming req see
system.mem_ctrls0.rdQLenPdf::20                     0                       # What read queue length does an incoming req see
system.mem_ctrls0.rdQLenPdf::21                     0                       # What read queue length does an incoming req see
system.mem_ctrls0.rdQLenPdf::22                     0                       # What read queue length does an incoming req see
system.mem_ctrls0.rdQLenPdf::23                     0                       # What read queue length does an incoming req see
system.mem_ctrls0.rdQLenPdf::24                     0                       # What read queue length does an incoming req see
system.mem_ctrls0.rdQLenPdf::25                     0                       # What read queue length does an incoming req see
system.mem_ctrls0.rdQLenPdf::26                     0                       # What read queue length does an incoming req see
system.mem_ctrls0.rdQLenPdf::27                     0                       # What read queue length does an incoming req see
system.mem_ctrls0.rdQLenPdf::28                     0                       # What read queue length does an incoming req see
system.mem_ctrls0.rdQLenPdf::29                     0                       # What read queue length does an incoming req see
system.mem_ctrls0.rdQLenPdf::30                     0                       # What read queue length does an incoming req see
system.mem_ctrls0.rdQLenPdf::31                     0                       # What read queue length does an incoming req see
system.mem_ctrls0.wrQLenPdf::0                      1                       # What write queue length does an incoming req see
system.mem_ctrls0.wrQLenPdf::1                      1                       # What write queue length does an incoming req see
system.mem_ctrls0.wrQLenPdf::2                      1                       # What write queue length does an incoming req see
system.mem_ctrls0.wrQLenPdf::3                      1                       # What write queue length does an incoming req see
system.mem_ctrls0.wrQLenPdf::4                      1                       # What write queue length does an incoming req see
system.mem_ctrls0.wrQLenPdf::5                      1                       # What write queue length does an incoming req see
system.mem_ctrls0.wrQLenPdf::6                      1                       # What write queue length does an incoming req see
system.mem_ctrls0.wrQLenPdf::7                      1                       # What write queue length does an incoming req see
system.mem_ctrls0.wrQLenPdf::8                      1                       # What write queue length does an incoming req see
system.mem_ctrls0.wrQLenPdf::9                      1                       # What write queue length does an incoming req see
system.mem_ctrls0.wrQLenPdf::10                     1                       # What write queue length does an incoming req see
system.mem_ctrls0.wrQLenPdf::11                     1                       # What write queue length does an incoming req see
system.mem_ctrls0.wrQLenPdf::12                     1                       # What write queue length does an incoming req see
system.mem_ctrls0.wrQLenPdf::13                     1                       # What write queue length does an incoming req see
system.mem_ctrls0.wrQLenPdf::14                     1                       # What write queue length does an incoming req see
system.mem_ctrls0.wrQLenPdf::15                     2                       # What write queue length does an incoming req see
system.mem_ctrls0.wrQLenPdf::16                     2                       # What write queue length does an incoming req see
system.mem_ctrls0.wrQLenPdf::17                     3                       # What write queue length does an incoming req see
system.mem_ctrls0.wrQLenPdf::18                     3                       # What write queue length does an incoming req see
system.mem_ctrls0.wrQLenPdf::19                     3                       # What write queue length does an incoming req see
system.mem_ctrls0.wrQLenPdf::20                     3                       # What write queue length does an incoming req see
system.mem_ctrls0.wrQLenPdf::21                     3                       # What write queue length does an incoming req see
system.mem_ctrls0.wrQLenPdf::22                     3                       # What write queue length does an incoming req see
system.mem_ctrls0.wrQLenPdf::23                     3                       # What write queue length does an incoming req see
system.mem_ctrls0.wrQLenPdf::24                     3                       # What write queue length does an incoming req see
system.mem_ctrls0.wrQLenPdf::25                     3                       # What write queue length does an incoming req see
system.mem_ctrls0.wrQLenPdf::26                     3                       # What write queue length does an incoming req see
system.mem_ctrls0.wrQLenPdf::27                     3                       # What write queue length does an incoming req see
system.mem_ctrls0.wrQLenPdf::28                     2                       # What write queue length does an incoming req see
system.mem_ctrls0.wrQLenPdf::29                     2                       # What write queue length does an incoming req see
system.mem_ctrls0.wrQLenPdf::30                     2                       # What write queue length does an incoming req see
system.mem_ctrls0.wrQLenPdf::31                     2                       # What write queue length does an incoming req see
system.mem_ctrls0.wrQLenPdf::32                     2                       # What write queue length does an incoming req see
system.mem_ctrls0.wrQLenPdf::33                     0                       # What write queue length does an incoming req see
system.mem_ctrls0.wrQLenPdf::34                     0                       # What write queue length does an incoming req see
system.mem_ctrls0.wrQLenPdf::35                     0                       # What write queue length does an incoming req see
system.mem_ctrls0.wrQLenPdf::36                     0                       # What write queue length does an incoming req see
system.mem_ctrls0.wrQLenPdf::37                     0                       # What write queue length does an incoming req see
system.mem_ctrls0.wrQLenPdf::38                     0                       # What write queue length does an incoming req see
system.mem_ctrls0.wrQLenPdf::39                     0                       # What write queue length does an incoming req see
system.mem_ctrls0.wrQLenPdf::40                     0                       # What write queue length does an incoming req see
system.mem_ctrls0.wrQLenPdf::41                     0                       # What write queue length does an incoming req see
system.mem_ctrls0.wrQLenPdf::42                     0                       # What write queue length does an incoming req see
system.mem_ctrls0.wrQLenPdf::43                     0                       # What write queue length does an incoming req see
system.mem_ctrls0.wrQLenPdf::44                     0                       # What write queue length does an incoming req see
system.mem_ctrls0.wrQLenPdf::45                     0                       # What write queue length does an incoming req see
system.mem_ctrls0.wrQLenPdf::46                     0                       # What write queue length does an incoming req see
system.mem_ctrls0.wrQLenPdf::47                     0                       # What write queue length does an incoming req see
system.mem_ctrls0.wrQLenPdf::48                     0                       # What write queue length does an incoming req see
system.mem_ctrls0.wrQLenPdf::49                     0                       # What write queue length does an incoming req see
system.mem_ctrls0.wrQLenPdf::50                     0                       # What write queue length does an incoming req see
system.mem_ctrls0.wrQLenPdf::51                     0                       # What write queue length does an incoming req see
system.mem_ctrls0.wrQLenPdf::52                     0                       # What write queue length does an incoming req see
system.mem_ctrls0.wrQLenPdf::53                     0                       # What write queue length does an incoming req see
system.mem_ctrls0.wrQLenPdf::54                     0                       # What write queue length does an incoming req see
system.mem_ctrls0.wrQLenPdf::55                     0                       # What write queue length does an incoming req see
system.mem_ctrls0.wrQLenPdf::56                     0                       # What write queue length does an incoming req see
system.mem_ctrls0.wrQLenPdf::57                     0                       # What write queue length does an incoming req see
system.mem_ctrls0.wrQLenPdf::58                     0                       # What write queue length does an incoming req see
system.mem_ctrls0.wrQLenPdf::59                     0                       # What write queue length does an incoming req see
system.mem_ctrls0.wrQLenPdf::60                     0                       # What write queue length does an incoming req see
system.mem_ctrls0.wrQLenPdf::61                     0                       # What write queue length does an incoming req see
system.mem_ctrls0.wrQLenPdf::62                     0                       # What write queue length does an incoming req see
system.mem_ctrls0.wrQLenPdf::63                     0                       # What write queue length does an incoming req see
system.mem_ctrls0.bytesPerActivate::samples         6933                       # Bytes accessed per row activation
system.mem_ctrls0.bytesPerActivate::mean   421.349488                       # Bytes accessed per row activation
system.mem_ctrls0.bytesPerActivate::gmean   273.548883                       # Bytes accessed per row activation
system.mem_ctrls0.bytesPerActivate::stdev   354.738807                       # Bytes accessed per row activation
system.mem_ctrls0.bytesPerActivate::0-127         1351     19.49%     19.49% # Bytes accessed per row activation
system.mem_ctrls0.bytesPerActivate::128-255         1486     21.43%     40.92% # Bytes accessed per row activation
system.mem_ctrls0.bytesPerActivate::256-383          936     13.50%     54.42% # Bytes accessed per row activation
system.mem_ctrls0.bytesPerActivate::384-511          884     12.75%     67.17% # Bytes accessed per row activation
system.mem_ctrls0.bytesPerActivate::512-639          397      5.73%     72.90% # Bytes accessed per row activation
system.mem_ctrls0.bytesPerActivate::640-767          255      3.68%     76.58% # Bytes accessed per row activation
system.mem_ctrls0.bytesPerActivate::768-895          157      2.26%     78.84% # Bytes accessed per row activation
system.mem_ctrls0.bytesPerActivate::896-1023          156      2.25%     81.09% # Bytes accessed per row activation
system.mem_ctrls0.bytesPerActivate::1024-1151         1311     18.91%    100.00% # Bytes accessed per row activation
system.mem_ctrls0.bytesPerActivate::total         6933                       # Bytes accessed per row activation
system.mem_ctrls0.rdPerTurnAround::samples            2                       # Reads before turning the bus around for writes
system.mem_ctrls0.rdPerTurnAround::mean          1004                       # Reads before turning the bus around for writes
system.mem_ctrls0.rdPerTurnAround::gmean   930.530494                       # Reads before turning the bus around for writes
system.mem_ctrls0.rdPerTurnAround::stdev   533.158513                       # Reads before turning the bus around for writes
system.mem_ctrls0.rdPerTurnAround::576-639            1     50.00%     50.00% # Reads before turning the bus around for writes
system.mem_ctrls0.rdPerTurnAround::1344-1407            1     50.00%    100.00% # Reads before turning the bus around for writes
system.mem_ctrls0.rdPerTurnAround::total            2                       # Reads before turning the bus around for writes
system.mem_ctrls0.wrPerTurnAround::samples            2                       # Writes before turning the bus around for reads
system.mem_ctrls0.wrPerTurnAround::mean            17                       # Writes before turning the bus around for reads
system.mem_ctrls0.wrPerTurnAround::gmean    16.970563                       # Writes before turning the bus around for reads
system.mem_ctrls0.wrPerTurnAround::stdev     1.414214                       # Writes before turning the bus around for reads
system.mem_ctrls0.wrPerTurnAround::16               1     50.00%     50.00% # Writes before turning the bus around for reads
system.mem_ctrls0.wrPerTurnAround::18               1     50.00%    100.00% # Writes before turning the bus around for reads
system.mem_ctrls0.wrPerTurnAround::total            2                       # Writes before turning the bus around for reads
system.mem_ctrls0.bytesReadDRAM               2920256                       # Total number of bytes read from DRAM
system.mem_ctrls0.bytesReadWrQ                 120832                       # Total number of bytes read from write queue
system.mem_ctrls0.bytesWritten                   2176                       # Total number of bytes written to DRAM
system.mem_ctrls0.bytesReadSys                1958642                       # Total read bytes from the system interface side
system.mem_ctrls0.bytesWrittenSys               59358                       # Total written bytes from the system interface side
system.mem_ctrls0.avgRdBW                      875.38                       # Average DRAM read bandwidth in MiByte/s
system.mem_ctrls0.avgWrBW                        0.65                       # Average achieved write bandwidth in MiByte/s
system.mem_ctrls0.avgRdBWSys                   587.13                       # Average system read bandwidth in MiByte/s
system.mem_ctrls0.avgWrBWSys                    17.79                       # Average system write bandwidth in MiByte/s
system.mem_ctrls0.peakBW                     12800.00                       # Theoretical peak bandwidth in MiByte/s
system.mem_ctrls0.busUtil                        6.84                       # Data bus utilization in percentage
system.mem_ctrls0.busUtilRead                    6.84                       # Data bus utilization in percentage for reads
system.mem_ctrls0.busUtilWrite                   0.01                       # Data bus utilization in percentage for writes
system.mem_ctrls0.totGap                   3335676000                       # Total gap between requests
system.mem_ctrls0.avgGap                     53529.26                       # Average gap between requests
system.mem_ctrls0.masterReadBytes::.cpu_cluster.cpus.inst      1873216                       # Per-master bytes read from memory
system.mem_ctrls0.masterReadBytes::.cpu_cluster.cpus.data        77874                       # Per-master bytes read from memory
system.mem_ctrls0.masterWriteBytes::.cpu_cluster.cpus.data          144                       # Per-master bytes write to memory
system.mem_ctrls0.masterReadRate::.cpu_cluster.cpus.inst 561519711.400758266449                       # Per-master bytes read from memory rate (Bytes/sec)
system.mem_ctrls0.masterReadRate::.cpu_cluster.cpus.data 23343696.618875049055                       # Per-master bytes read from memory rate (Bytes/sec)
system.mem_ctrls0.masterWriteRate::.cpu_cluster.cpus.data 43165.784640804472                       # Per-master bytes write to memory rate (Bytes/sec)
system.mem_ctrls0.masterReadAccesses::.cpu_cluster.cpus.inst        29269                       # Per-master read serviced memory accesses
system.mem_ctrls0.masterReadAccesses::.cpu_cluster.cpus.data        18248                       # Per-master read serviced memory accesses
system.mem_ctrls0.masterWriteAccesses::.cpu_cluster.cpus.data        14798                       # Per-master write serviced memory accesses
system.mem_ctrls0.masterReadTotalLat::.cpu_cluster.cpus.inst    689898500                       # Per-master read total memory access latency
system.mem_ctrls0.masterReadTotalLat::.cpu_cluster.cpus.data    420267750                       # Per-master read total memory access latency
system.mem_ctrls0.masterWriteTotalLat::.cpu_cluster.cpus.data   3159757750                       # Per-master write total memory access latency
system.mem_ctrls0.masterReadAvgLat::.cpu_cluster.cpus.inst     23570.96                       # Per-master read average memory access latency
system.mem_ctrls0.masterReadAvgLat::.cpu_cluster.cpus.data     23030.89                       # Per-master read average memory access latency
system.mem_ctrls0.masterWriteAvgLat::.cpu_cluster.cpus.data    213526.00                       # Per-master write average memory access latency
system.mem_ctrls0.pageHitRate                   84.76                       # Row buffer hit rate, read and write combined
system.mem_ctrls0.rank1.actEnergy             3384360                       # Energy for activate commands per rank (pJ)
system.mem_ctrls0.rank1.preEnergy             1798830                       # Energy for precharge commands per rank (pJ)
system.mem_ctrls0.rank1.readEnergy           26396580                       # Energy for read commands per rank (pJ)
system.mem_ctrls0.rank1.writeEnergy                 0                       # Energy for write commands per rank (pJ)
system.mem_ctrls0.rank1.refreshEnergy    263065920.000000                       # Energy for refresh commands per rank (pJ)
system.mem_ctrls0.rank1.actBackEnergy       933847530                       # Energy for active background per rank (pJ)
system.mem_ctrls0.rank1.preBackEnergy       494616960                       # Energy for precharge background per rank (pJ)
system.mem_ctrls0.rank1.actPowerDownEnergy            0                       # Energy for active power-down per rank (pJ)
system.mem_ctrls0.rank1.prePowerDownEnergy            0                       # Energy for precharge power-down per rank (pJ)
system.mem_ctrls0.rank1.selfRefreshEnergy            0                       # Energy for self refresh per rank (pJ)
system.mem_ctrls0.rank1.totalEnergy        1723110180                       # Total energy per rank (pJ)
system.mem_ctrls0.rank1.averagePower       516.523632                       # Core power per rank (mW)
system.mem_ctrls0.rank1.totalIdleTime               0                       # Total Idle time Per DRAM Rank
system.mem_ctrls0.rank1.memoryStateTime::IDLE   1276204000                       # Time in different power states
system.mem_ctrls0.rank1.memoryStateTime::REF    111280000                       # Time in different power states
system.mem_ctrls0.rank1.memoryStateTime::SREF            0                       # Time in different power states
system.mem_ctrls0.rank1.memoryStateTime::PRE_PDN            0                       # Time in different power states
system.mem_ctrls0.rank1.memoryStateTime::ACT   1948491500                       # Time in different power states
system.mem_ctrls0.rank1.memoryStateTime::ACT_PDN            0                       # Time in different power states
system.mem_ctrls0.rank0.actEnergy            46145820                       # Energy for activate commands per rank (pJ)
system.mem_ctrls0.rank0.preEnergy            24511905                       # Energy for precharge commands per rank (pJ)
system.mem_ctrls0.rank0.readEnergy          299394480                       # Energy for read commands per rank (pJ)
system.mem_ctrls0.rank0.writeEnergy            177480                       # Energy for write commands per rank (pJ)
system.mem_ctrls0.rank0.refreshEnergy    263065920.000000                       # Energy for refresh commands per rank (pJ)
system.mem_ctrls0.rank0.actBackEnergy      1497906420                       # Energy for active background per rank (pJ)
system.mem_ctrls0.rank0.preBackEnergy        19620000                       # Energy for precharge background per rank (pJ)
system.mem_ctrls0.rank0.actPowerDownEnergy            0                       # Energy for active power-down per rank (pJ)
system.mem_ctrls0.rank0.prePowerDownEnergy            0                       # Energy for precharge power-down per rank (pJ)
system.mem_ctrls0.rank0.selfRefreshEnergy            0                       # Energy for self refresh per rank (pJ)
system.mem_ctrls0.rank0.totalEnergy        2150822025                       # Total energy per rank (pJ)
system.mem_ctrls0.rank0.averagePower       644.735558                       # Core power per rank (mW)
system.mem_ctrls0.rank0.totalIdleTime               0                       # Total Idle time Per DRAM Rank
system.mem_ctrls0.rank0.memoryStateTime::IDLE     38768750                       # Time in different power states
system.mem_ctrls0.rank0.memoryStateTime::REF    111280000                       # Time in different power states
system.mem_ctrls0.rank0.memoryStateTime::SREF            0                       # Time in different power states
system.mem_ctrls0.rank0.memoryStateTime::PRE_PDN            0                       # Time in different power states
system.mem_ctrls0.rank0.memoryStateTime::ACT   3185926750                       # Time in different power states
system.mem_ctrls0.rank0.memoryStateTime::ACT_PDN            0                       # Time in different power states
system.mem_ctrls1.pwrStateResidencyTicks::UNDEFINED   3335975500                       # Cumulative time (in ticks) in various power states
system.mem_ctrls1.bytes_read::.cpu_cluster.cpus.inst      1849216                       # Number of bytes read from this memory
system.mem_ctrls1.bytes_read::.cpu_cluster.cpus.data        83217                       # Number of bytes read from this memory
system.mem_ctrls1.bytes_read::total           1932433                       # Number of bytes read from this memory
system.mem_ctrls1.bytes_inst_read::.cpu_cluster.cpus.inst      1849216                       # Number of instructions bytes read from this memory
system.mem_ctrls1.bytes_inst_read::total      1849216                       # Number of instructions bytes read from this memory
system.mem_ctrls1.bytes_written::.cpu_cluster.cpus.data        57412                       # Number of bytes written to this memory
system.mem_ctrls1.bytes_written::total          57412                       # Number of bytes written to this memory
system.mem_ctrls1.num_reads::.cpu_cluster.cpus.inst        28894                       # Number of read requests responded to by this memory
system.mem_ctrls1.num_reads::.cpu_cluster.cpus.data        18346                       # Number of read requests responded to by this memory
system.mem_ctrls1.num_reads::total              47240                       # Number of read requests responded to by this memory
system.mem_ctrls1.num_writes::.cpu_cluster.cpus.data        14518                       # Number of write requests responded to by this memory
system.mem_ctrls1.num_writes::total             14518                       # Number of write requests responded to by this memory
system.mem_ctrls1.bw_read::.cpu_cluster.cpus.inst    554325414                       # Total read bandwidth from this memory (bytes/s)
system.mem_ctrls1.bw_read::.cpu_cluster.cpus.data     24945327                       # Total read bandwidth from this memory (bytes/s)
system.mem_ctrls1.bw_read::total            579270741                       # Total read bandwidth from this memory (bytes/s)
system.mem_ctrls1.bw_inst_read::.cpu_cluster.cpus.inst    554325414                       # Instruction read bandwidth from this memory (bytes/s)
system.mem_ctrls1.bw_inst_read::total       554325414                       # Instruction read bandwidth from this memory (bytes/s)
system.mem_ctrls1.bw_write::.cpu_cluster.cpus.data     17209959                       # Write bandwidth from this memory (bytes/s)
system.mem_ctrls1.bw_write::total            17209959                       # Write bandwidth from this memory (bytes/s)
system.mem_ctrls1.bw_total::.cpu_cluster.cpus.inst    554325414                       # Total bandwidth to/from this memory (bytes/s)
system.mem_ctrls1.bw_total::.cpu_cluster.cpus.data     42155286                       # Total bandwidth to/from this memory (bytes/s)
system.mem_ctrls1.bw_total::total           596480700                       # Total bandwidth to/from this memory (bytes/s)
system.mem_ctrls1.avgPriority_.cpu_cluster.cpus.inst::samples     28895.00                       # Average QoS priority value for accepted requests
system.mem_ctrls1.avgPriority_.cpu_cluster.cpus.data::samples     17540.00                       # Average QoS priority value for accepted requests
system.mem_ctrls1.priorityMinLatency     0.000000018750                       # per QoS priority minimum request to response latency (s)
system.mem_ctrls1.priorityMaxLatency     0.001606971000                       # per QoS priority maximum request to response latency (s)
system.mem_ctrls1.numReadWriteTurnArounds            2                       # Number of turnarounds from READ to WRITE
system.mem_ctrls1.numWriteReadTurnArounds            2                       # Number of turnarounds from WRITE to READ
system.mem_ctrls1.numStayReadState             107899                       # Number of times bus staying in READ state
system.mem_ctrls1.numStayWriteState                31                       # Number of times bus staying in WRITE state
system.mem_ctrls1.readReqs                      47241                       # Number of read requests accepted
system.mem_ctrls1.writeReqs                     14518                       # Number of write requests accepted
system.mem_ctrls1.readBursts                    47241                       # Number of DRAM read bursts, including those serviced by the write queue
system.mem_ctrls1.writeBursts                   14518                       # Number of DRAM write bursts, including those merged in the write queue
system.mem_ctrls1.servicedByWrQ                   866                       # Number of DRAM read bursts serviced by the write queue
system.mem_ctrls1.mergedWrBursts                14458                       # Number of DRAM write bursts merged with an existing one
system.mem_ctrls1.neitherReadNorWriteReqs            0                       # Number of requests that are neither read nor write
system.mem_ctrls1.perBankRdBursts::0             2299                       # Per bank write bursts
system.mem_ctrls1.perBankRdBursts::1            11450                       # Per bank write bursts
system.mem_ctrls1.perBankRdBursts::2             1326                       # Per bank write bursts
system.mem_ctrls1.perBankRdBursts::3             4605                       # Per bank write bursts
system.mem_ctrls1.perBankRdBursts::4            11875                       # Per bank write bursts
system.mem_ctrls1.perBankRdBursts::5               52                       # Per bank write bursts
system.mem_ctrls1.perBankRdBursts::6               10                       # Per bank write bursts
system.mem_ctrls1.perBankRdBursts::7            10617                       # Per bank write bursts
system.mem_ctrls1.perBankRdBursts::8                0                       # Per bank write bursts
system.mem_ctrls1.perBankRdBursts::9               15                       # Per bank write bursts
system.mem_ctrls1.perBankRdBursts::10             103                       # Per bank write bursts
system.mem_ctrls1.perBankRdBursts::11             231                       # Per bank write bursts
system.mem_ctrls1.perBankRdBursts::12            1100                       # Per bank write bursts
system.mem_ctrls1.perBankRdBursts::13             613                       # Per bank write bursts
system.mem_ctrls1.perBankRdBursts::14            2079                       # Per bank write bursts
system.mem_ctrls1.perBankRdBursts::15               0                       # Per bank write bursts
system.mem_ctrls1.perBankWrBursts::0                0                       # Per bank write bursts
system.mem_ctrls1.perBankWrBursts::1                0                       # Per bank write bursts
system.mem_ctrls1.perBankWrBursts::2                0                       # Per bank write bursts
system.mem_ctrls1.perBankWrBursts::3               18                       # Per bank write bursts
system.mem_ctrls1.perBankWrBursts::4               12                       # Per bank write bursts
system.mem_ctrls1.perBankWrBursts::5                3                       # Per bank write bursts
system.mem_ctrls1.perBankWrBursts::6                0                       # Per bank write bursts
system.mem_ctrls1.perBankWrBursts::7                0                       # Per bank write bursts
system.mem_ctrls1.perBankWrBursts::8                0                       # Per bank write bursts
system.mem_ctrls1.perBankWrBursts::9                0                       # Per bank write bursts
system.mem_ctrls1.perBankWrBursts::10               0                       # Per bank write bursts
system.mem_ctrls1.perBankWrBursts::11               0                       # Per bank write bursts
system.mem_ctrls1.perBankWrBursts::12               0                       # Per bank write bursts
system.mem_ctrls1.perBankWrBursts::13               0                       # Per bank write bursts
system.mem_ctrls1.perBankWrBursts::14               0                       # Per bank write bursts
system.mem_ctrls1.perBankWrBursts::15               0                       # Per bank write bursts
system.mem_ctrls1.avgRdQLen                      1.21                       # Average read queue length when enqueuing
system.mem_ctrls1.avgWrQLen                     20.58                       # Average write queue length when enqueuing
system.mem_ctrls1.totQLat                   231703000                       # Total ticks spent queuing
system.mem_ctrls1.totBusLat                 231875000                       # Total ticks spent in databus transfers
system.mem_ctrls1.totMemAccLat             1101234250                       # Total ticks spent from burst creation until serviced by the DRAM
system.mem_ctrls1.avgQLat                     4996.29                       # Average queueing delay per DRAM burst
system.mem_ctrls1.avgBusLat                   5000.00                       # Average bus latency per DRAM burst
system.mem_ctrls1.avgMemAccLat               23746.29                       # Average memory access latency per DRAM burst
system.mem_ctrls1.numRdRetry                        0                       # Number of times read queue was full causing retry
system.mem_ctrls1.numWrRetry                        0                       # Number of times write queue was full causing retry
system.mem_ctrls1.readRowHits                   39614                       # Number of row buffer hits during reads
system.mem_ctrls1.writeRowHits                     31                       # Number of row buffer hits during writes
system.mem_ctrls1.readRowHitRate                85.42                       # Row buffer hit rate for reads
system.mem_ctrls1.writeRowHitRate               51.67                       # Row buffer hit rate for writes
system.mem_ctrls1.readPktSize::0                 2947                       # Read request sizes (log2)
system.mem_ctrls1.readPktSize::1                    9                       # Read request sizes (log2)
system.mem_ctrls1.readPktSize::2                10717                       # Read request sizes (log2)
system.mem_ctrls1.readPktSize::3                 4673                       # Read request sizes (log2)
system.mem_ctrls1.readPktSize::4                    0                       # Read request sizes (log2)
system.mem_ctrls1.readPktSize::5                    0                       # Read request sizes (log2)
system.mem_ctrls1.readPktSize::6                28895                       # Read request sizes (log2)
system.mem_ctrls1.writePktSize::0                 267                       # Write request sizes (log2)
system.mem_ctrls1.writePktSize::1                  91                       # Write request sizes (log2)
system.mem_ctrls1.writePktSize::2               14079                       # Write request sizes (log2)
system.mem_ctrls1.writePktSize::3                  81                       # Write request sizes (log2)
system.mem_ctrls1.writePktSize::4                   0                       # Write request sizes (log2)
system.mem_ctrls1.writePktSize::5                   0                       # Write request sizes (log2)
system.mem_ctrls1.writePktSize::6                   0                       # Write request sizes (log2)
system.mem_ctrls1.rdQLenPdf::0                  37248                       # What read queue length does an incoming req see
system.mem_ctrls1.rdQLenPdf::1                   8849                       # What read queue length does an incoming req see
[...]
system.mem_ctrls1.wrQLenPdf::9                      1                       # What write queue length does an incoming req see
system.mem_ctrls1.wrQLenPdf::10                     1                       # What write queue length does an incoming req see
system.mem_ctrls1.wrQLenPdf::11                     1                       # What write queue length does an incoming req see
system.mem_ctrls1.wrQLenPdf::12                     1                       # What write queue length does an incoming req see
system.mem_ctrls1.wrQLenPdf::13                     1                       # What write queue length does an incoming req see
system.mem_ctrls1.wrQLenPdf::14                     1                       # What write queue length does an incoming req see
system.mem_ctrls1.wrQLenPdf::15                     1                       # What write queue length does an incoming req see
system.mem_ctrls1.wrQLenPdf::16                     2                       # What write queue length does an incoming req see
system.mem_ctrls1.wrQLenPdf::17                     3                       # What write queue length does an incoming req see
system.mem_ctrls1.wrQLenPdf::18                     3                       # What write queue length does an incoming req see
system.mem_ctrls1.wrQLenPdf::19                     3                       # What write queue length does an incoming req see
system.mem_ctrls1.wrQLenPdf::20                     3                       # What write queue length does an incoming req see
system.mem_ctrls1.wrQLenPdf::21                     3                       # What write queue length does an incoming req see
system.mem_ctrls1.wrQLenPdf::22                     3                       # What write queue length does an incoming req see
system.mem_ctrls1.wrQLenPdf::23                     3                       # What write queue length does an incoming req see
system.mem_ctrls1.wrQLenPdf::24                     3                       # What write queue length does an incoming req see
system.mem_ctrls1.wrQLenPdf::25                     3                       # What write queue length does an incoming req see
system.mem_ctrls1.wrQLenPdf::26                     3                       # What write queue length does an incoming req see
system.mem_ctrls1.wrQLenPdf::27                     2                       # What write queue length does an incoming req see
system.mem_ctrls1.wrQLenPdf::28                     2                       # What write queue length does an incoming req see
system.mem_ctrls1.wrQLenPdf::29                     2                       # What write queue length does an incoming req see
system.mem_ctrls1.wrQLenPdf::30                     2                       # What write queue length does an incoming req see
system.mem_ctrls1.wrQLenPdf::31                     2                       # What write queue length does an incoming req see
system.mem_ctrls1.wrQLenPdf::32                     2                       # What write queue length does an incoming req see
system.mem_ctrls1.wrQLenPdf::33                     0                       # What write queue length does an incoming req see
system.mem_ctrls1.wrQLenPdf::34                     0                       # What write queue length does an incoming req see
system.mem_ctrls1.wrQLenPdf::35                     0                       # What write queue length does an incoming req see
system.mem_ctrls1.wrQLenPdf::36                     0                       # What write queue length does an incoming req see
system.mem_ctrls1.wrQLenPdf::37                     0                       # What write queue length does an incoming req see
system.mem_ctrls1.wrQLenPdf::38                     0                       # What write queue length does an incoming req see
system.mem_ctrls1.wrQLenPdf::39                     0                       # What write queue length does an incoming req see
system.mem_ctrls1.wrQLenPdf::40                     0                       # What write queue length does an incoming req see
system.mem_ctrls1.wrQLenPdf::41                     0                       # What write queue length does an incoming req see
system.mem_ctrls1.wrQLenPdf::42                     0                       # What write queue length does an incoming req see
system.mem_ctrls1.wrQLenPdf::43                     0                       # What write queue length does an incoming req see
system.mem_ctrls1.wrQLenPdf::44                     0                       # What write queue length does an incoming req see
system.mem_ctrls1.wrQLenPdf::45                     0                       # What write queue length does an incoming req see
system.mem_ctrls1.wrQLenPdf::46                     0                       # What write queue length does an incoming req see
system.mem_ctrls1.wrQLenPdf::47                     0                       # What write queue length does an incoming req see
system.mem_ctrls1.wrQLenPdf::48                     0                       # What write queue length does an incoming req see
system.mem_ctrls1.wrQLenPdf::49                     0                       # What write queue length does an incoming req see
system.mem_ctrls1.wrQLenPdf::50                     0                       # What write queue length does an incoming req see
system.mem_ctrls1.wrQLenPdf::51                     0                       # What write queue length does an incoming req see
system.mem_ctrls1.wrQLenPdf::52                     0                       # What write queue length does an incoming req see
system.mem_ctrls1.wrQLenPdf::53                     0                       # What write queue length does an incoming req see
system.mem_ctrls1.wrQLenPdf::54                     0                       # What write queue length does an incoming req see
system.mem_ctrls1.wrQLenPdf::55                     0                       # What write queue length does an incoming req see
system.mem_ctrls1.wrQLenPdf::56                     0                       # What write queue length does an incoming req see
system.mem_ctrls1.wrQLenPdf::57                     0                       # What write queue length does an incoming req see
system.mem_ctrls1.wrQLenPdf::58                     0                       # What write queue length does an incoming req see
system.mem_ctrls1.wrQLenPdf::59                     0                       # What write queue length does an incoming req see
system.mem_ctrls1.wrQLenPdf::60                     0                       # What write queue length does an incoming req see
system.mem_ctrls1.wrQLenPdf::61                     0                       # What write queue length does an incoming req see
system.mem_ctrls1.wrQLenPdf::62                     0                       # What write queue length does an incoming req see
system.mem_ctrls1.wrQLenPdf::63                     0                       # What write queue length does an incoming req see
system.mem_ctrls1.bytesPerActivate::samples         6758                       # Bytes accessed per row activation
system.mem_ctrls1.bytesPerActivate::mean   439.306304                       # Bytes accessed per row activation
system.mem_ctrls1.bytesPerActivate::gmean   288.542803                       # Bytes accessed per row activation
system.mem_ctrls1.bytesPerActivate::stdev   361.811975                       # Bytes accessed per row activation
system.mem_ctrls1.bytesPerActivate::0-127         1211     17.92%     17.92% # Bytes accessed per row activation
system.mem_ctrls1.bytesPerActivate::128-255         1399     20.70%     38.62% # Bytes accessed per row activation
system.mem_ctrls1.bytesPerActivate::256-383         1104     16.34%     54.96% # Bytes accessed per row activation
system.mem_ctrls1.bytesPerActivate::384-511          694     10.27%     65.23% # Bytes accessed per row activation
system.mem_ctrls1.bytesPerActivate::512-639          347      5.13%     70.36% # Bytes accessed per row activation
system.mem_ctrls1.bytesPerActivate::640-767          235      3.48%     73.84% # Bytes accessed per row activation
system.mem_ctrls1.bytesPerActivate::768-895          210      3.11%     76.95% # Bytes accessed per row activation
system.mem_ctrls1.bytesPerActivate::896-1023          152      2.25%     79.20% # Bytes accessed per row activation
system.mem_ctrls1.bytesPerActivate::1024-1151         1406     20.80%    100.00% # Bytes accessed per row activation
system.mem_ctrls1.bytesPerActivate::total         6758                       # Bytes accessed per row activation
system.mem_ctrls1.rdPerTurnAround::samples            2                       # Reads before turning the bus around for writes
system.mem_ctrls1.rdPerTurnAround::mean           993                       # Reads before turning the bus around for writes
system.mem_ctrls1.rdPerTurnAround::gmean   985.722578                       # Reads before turning the bus around for writes
system.mem_ctrls1.rdPerTurnAround::stdev   169.705627                       # Reads before turning the bus around for writes
system.mem_ctrls1.rdPerTurnAround::832-895            1     50.00%     50.00% # Reads before turning the bus around for writes
system.mem_ctrls1.rdPerTurnAround::1088-1151            1     50.00%    100.00% # Reads before turning the bus around for writes
system.mem_ctrls1.rdPerTurnAround::total            2                       # Reads before turning the bus around for writes
system.mem_ctrls1.wrPerTurnAround::samples            2                       # Writes before turning the bus around for reads
system.mem_ctrls1.wrPerTurnAround::mean     16.500000                       # Writes before turning the bus around for reads
system.mem_ctrls1.wrPerTurnAround::gmean    16.492423                       # Writes before turning the bus around for reads
system.mem_ctrls1.wrPerTurnAround::stdev     0.707107                       # Writes before turning the bus around for reads
system.mem_ctrls1.wrPerTurnAround::16               1     50.00%     50.00% # Writes before turning the bus around for reads
system.mem_ctrls1.wrPerTurnAround::17               1     50.00%    100.00% # Writes before turning the bus around for reads
system.mem_ctrls1.wrPerTurnAround::total            2                       # Writes before turning the bus around for reads
system.mem_ctrls1.bytesReadDRAM               2968000                       # Total number of bytes read from DRAM
system.mem_ctrls1.bytesReadWrQ                  55424                       # Total number of bytes read from write queue
system.mem_ctrls1.bytesWritten                   2112                       # Total number of bytes written to DRAM
system.mem_ctrls1.bytesReadSys                1932497                       # Total read bytes from the system interface side
system.mem_ctrls1.bytesWrittenSys               57412                       # Total written bytes from the system interface side
system.mem_ctrls1.avgRdBW                      889.69                       # Average DRAM read bandwidth in MiByte/s
system.mem_ctrls1.avgWrBW                        0.63                       # Average achieved write bandwidth in MiByte/s
system.mem_ctrls1.avgRdBWSys                   579.29                       # Average system read bandwidth in MiByte/s
system.mem_ctrls1.avgWrBWSys                    17.21                       # Average system write bandwidth in MiByte/s
system.mem_ctrls1.peakBW                     12800.00                       # Theoretical peak bandwidth in MiByte/s
system.mem_ctrls1.busUtil                        6.96                       # Data bus utilization in percentage
system.mem_ctrls1.busUtilRead                    6.95                       # Data bus utilization in percentage for reads
system.mem_ctrls1.busUtilWrite                   0.00                       # Data bus utilization in percentage for writes
system.mem_ctrls1.totGap                   3335974750                       # Total gap between requests
system.mem_ctrls1.avgGap                     54016.01                       # Average gap between requests
system.mem_ctrls1.masterReadBytes::.cpu_cluster.cpus.inst      1849280                       # Per-master bytes read from memory
system.mem_ctrls1.masterReadBytes::.cpu_cluster.cpus.data        79753                       # Per-master bytes read from memory
system.mem_ctrls1.masterWriteBytes::.cpu_cluster.cpus.data          134                       # Per-master bytes write to memory
system.mem_ctrls1.masterReadRate::.cpu_cluster.cpus.inst 554344598.753797769547                       # Per-master bytes read from memory rate (Bytes/sec)
system.mem_ctrls1.masterReadRate::.cpu_cluster.cpus.data 23906950.155958879739                       # Per-master bytes read from memory rate (Bytes/sec)
system.mem_ctrls1.masterWriteRate::.cpu_cluster.cpus.data 40168.160707415271                       # Per-master bytes write to memory rate (Bytes/sec)
system.mem_ctrls1.masterReadAccesses::.cpu_cluster.cpus.inst        28895                       # Per-master read serviced memory accesses
system.mem_ctrls1.masterReadAccesses::.cpu_cluster.cpus.data        18346                       # Per-master read serviced memory accesses
system.mem_ctrls1.masterWriteAccesses::.cpu_cluster.cpus.data        14518                       # Per-master write serviced memory accesses
system.mem_ctrls1.masterReadTotalLat::.cpu_cluster.cpus.inst    662940000                       # Per-master read total memory access latency
system.mem_ctrls1.masterReadTotalLat::.cpu_cluster.cpus.data    438294250                       # Per-master read total memory access latency
system.mem_ctrls1.masterWriteTotalLat::.cpu_cluster.cpus.data   2847575750                       # Per-master write total memory access latency
system.mem_ctrls1.masterReadAvgLat::.cpu_cluster.cpus.inst     22943.07                       # Per-master read average memory access latency
system.mem_ctrls1.masterReadAvgLat::.cpu_cluster.cpus.data     23890.45                       # Per-master read average memory access latency
system.mem_ctrls1.masterWriteAvgLat::.cpu_cluster.cpus.data    196141.05                       # Per-master write average memory access latency
system.mem_ctrls1.pageHitRate                   85.38                       # Row buffer hit rate, read and write combined
system.mem_ctrls1.rank1.actEnergy             6254640                       # Energy for activate commands per rank (pJ)
system.mem_ctrls1.rank1.preEnergy             3324420                       # Energy for precharge commands per rank (pJ)
system.mem_ctrls1.rank1.readEnergy           29566740                       # Energy for read commands per rank (pJ)
system.mem_ctrls1.rank1.writeEnergy                 0                       # Energy for write commands per rank (pJ)
system.mem_ctrls1.rank1.refreshEnergy    263065920.000000                       # Energy for refresh commands per rank (pJ)
system.mem_ctrls1.rank1.actBackEnergy      1229342370                       # Energy for active background per rank (pJ)
system.mem_ctrls1.rank1.preBackEnergy       245779200                       # Energy for precharge background per rank (pJ)
system.mem_ctrls1.rank1.actPowerDownEnergy            0                       # Energy for active power-down per rank (pJ)
system.mem_ctrls1.rank1.prePowerDownEnergy            0                       # Energy for precharge power-down per rank (pJ)
system.mem_ctrls1.rank1.selfRefreshEnergy            0                       # Energy for self refresh per rank (pJ)
system.mem_ctrls1.rank1.totalEnergy        1777333290                       # Total energy per rank (pJ)
system.mem_ctrls1.rank1.averagePower       532.777681                       # Core power per rank (mW)
system.mem_ctrls1.rank1.totalIdleTime               0                       # Total Idle time Per DRAM Rank
system.mem_ctrls1.rank1.memoryStateTime::IDLE    627999000                       # Time in different power states
system.mem_ctrls1.rank1.memoryStateTime::REF    111280000                       # Time in different power states
system.mem_ctrls1.rank1.memoryStateTime::SREF            0                       # Time in different power states
system.mem_ctrls1.rank1.memoryStateTime::PRE_PDN            0                       # Time in different power states
system.mem_ctrls1.rank1.memoryStateTime::ACT   2596696500                       # Time in different power states
system.mem_ctrls1.rank1.memoryStateTime::ACT_PDN            0                       # Time in different power states
system.mem_ctrls1.rank0.actEnergy            42033180                       # Energy for activate commands per rank (pJ)
system.mem_ctrls1.rank0.preEnergy            22322190                       # Energy for precharge commands per rank (pJ)
system.mem_ctrls1.rank0.readEnergy          301550760                       # Energy for read commands per rank (pJ)
system.mem_ctrls1.rank0.writeEnergy            172260                       # Energy for write commands per rank (pJ)
system.mem_ctrls1.rank0.refreshEnergy    263065920.000000                       # Energy for refresh commands per rank (pJ)
system.mem_ctrls1.rank0.actBackEnergy      1505876160                       # Energy for active background per rank (pJ)
system.mem_ctrls1.rank0.preBackEnergy        12908640                       # Energy for precharge background per rank (pJ)
system.mem_ctrls1.rank0.actPowerDownEnergy            0                       # Energy for active power-down per rank (pJ)
system.mem_ctrls1.rank0.prePowerDownEnergy            0                       # Energy for precharge power-down per rank (pJ)
system.mem_ctrls1.rank0.selfRefreshEnergy            0                       # Energy for self refresh per rank (pJ)
system.mem_ctrls1.rank0.totalEnergy        2147929110                       # Total energy per rank (pJ)
system.mem_ctrls1.rank0.averagePower       643.868371                       # Core power per rank (mW)
system.mem_ctrls1.rank0.totalIdleTime               0                       # Total Idle time Per DRAM Rank
system.mem_ctrls1.rank0.memoryStateTime::IDLE     21261750                       # Time in different power states
system.mem_ctrls1.rank0.memoryStateTime::REF    111280000                       # Time in different power states
system.mem_ctrls1.rank0.memoryStateTime::SREF            0                       # Time in different power states
system.mem_ctrls1.rank0.memoryStateTime::PRE_PDN            0                       # Time in different power states
system.mem_ctrls1.rank0.memoryStateTime::ACT   3203433750                       # Time in different power states
system.mem_ctrls1.rank0.memoryStateTime::ACT_PDN            0                       # Time in different power states
system.clk_domain.clock                          1000                       # Clock period in ticks
system.cpu_cluster.voltage_domain.voltage     1.200000                       # Voltage in Volts
system.cpu_cluster.clk_domain.clock               250                       # Clock period in ticks
system.cpu_cluster.cpus.pwrStateResidencyTicks::ON   3335975500                       # Cumulative time (in ticks) in various power states
system.cpu_cluster.cpus.dtb.walker.pwrStateResidencyTicks::UNDEFINED   3335975500                       # Cumulative time (in ticks) in various power states
system.cpu_cluster.cpus.dtb.stage2_mmu.stage2_tlb.walker.pwrStateResidencyTicks::UNDEFINED   3335975500                       # Cumulative time (in ticks) in various power states
system.cpu_cluster.cpus.itb.walker.pwrStateResidencyTicks::UNDEFINED   3335975500                       # Cumulative time (in ticks) in various power states
system.cpu_cluster.cpus.itb.stage2_mmu.stage2_tlb.walker.pwrStateResidencyTicks::UNDEFINED   3335975500                       # Cumulative time (in ticks) in various power states

---------- End Simulation Statistics   ----------
