
---------- Begin Simulation Statistics ----------
final_tick                                 3008928500                       # Number of ticks from beginning of simulation (restored from checkpoints and never reset)
host_inst_rate                                 153340                       # Simulator instruction rate (inst/s)
host_mem_usage                                2239632                       # Number of bytes of host memory used
host_op_rate                                   181646                       # Simulator op (including micro ops) rate (op/s)
host_seconds                                     1.14                       # Real time elapsed on the host
host_tick_rate                             2643982039                       # Simulator tick rate (ticks/s)
sim_freq                                 1000000000000                       # Frequency of simulated ticks
sim_insts                                      174478                       # Number of instructions simulated
sim_ops                                        206713                       # Number of ops (including micro ops) simulated
sim_seconds                                  0.003009                       # Number of seconds simulated
sim_ticks                                  3008928500                       # Number of ticks simulated
system.cpu_cluster.cpus.branchPred.BTBCorrect            0                       # Number of correct BTB predictions (this stat may not work properly.
system.cpu_cluster.cpus.branchPred.BTBHitPct    46.114731                       # BTB Hit Percentage
system.cpu_cluster.cpus.branchPred.BTBHits        15145                       # Number of BTB hits
system.cpu_cluster.cpus.branchPred.BTBLookups        32842                       # Number of BTB lookups
system.cpu_cluster.cpus.branchPred.RASInCorrect            7                       # Number of incorrect RAS predictions.
system.cpu_cluster.cpus.branchPred.condIncorrect         1727                       # Number of conditional branches incorrect
system.cpu_cluster.cpus.branchPred.condPredicted        27754                       # Number of conditional branches predicted
system.cpu_cluster.cpus.branchPred.indirectHits         1790                       # Number of indirect target hits.
system.cpu_cluster.cpus.branchPred.indirectLookups         3829                       # Number of indirect predictor lookups.
system.cpu_cluster.cpus.branchPred.indirectMisses         2039                       # Number of indirect misses.
system.cpu_cluster.cpus.branchPred.lookups        40805                       # Number of BP lookups
system.cpu_cluster.cpus.branchPred.usedRAS         4119                       # Number of times the RAS was used to get a target.
system.cpu_cluster.cpus.branchPredindirectMispredicted          290                       # Number of mispredicted indirect branches.
system.cpu_cluster.cpus.committedInsts         174478                       # Number of instructions committed
system.cpu_cluster.cpus.committedOps           206713                       # Number of ops (including micro ops) committed
system.cpu_cluster.cpus.cpi                 68.981270                       # CPI: cycles per instruction
system.cpu_cluster.cpus.discardedOps             3924                       # Number of ops (including micro ops) which were discarded before commit
system.cpu_cluster.cpus.dtb.accesses                0                       # DTB accesses
system.cpu_cluster.cpus.dtb.align_faults            0                       # Number of TLB faults due to alignment restrictions
system.cpu_cluster.cpus.dtb.domain_faults            0                       # Number of TLB faults due to domain restrictions
system.cpu_cluster.cpus.dtb.flush_entries            0                       # Number of entries that have been flushed from TLB
system.cpu_cluster.cpus.dtb.flush_tlb               0                       # Number of times complete TLB was flushed
system.cpu_cluster.cpus.dtb.flush_tlb_asid            0                       # Number of times TLB was flushed by ASID
system.cpu_cluster.cpus.dtb.flush_tlb_mva            0                       # Number of times TLB was flushed by MVA
system.cpu_cluster.cpus.dtb.flush_tlb_mva_asid            0                       # Number of times TLB was flushed by MVA & ASID
system.cpu_cluster.cpus.dtb.hits                    0                       # DTB hits
system.cpu_cluster.cpus.dtb.inst_accesses            0                       # ITB inst accesses
system.cpu_cluster.cpus.dtb.inst_hits               0                       # ITB inst hits
system.cpu_cluster.cpus.dtb.inst_misses             0                       # ITB inst misses
system.cpu_cluster.cpus.dtb.misses                  0                       # DTB misses
system.cpu_cluster.cpus.dtb.perms_faults            0                       # Number of TLB faults due to permissions restrictions
system.cpu_cluster.cpus.dtb.prefetch_faults            0                       # Number of TLB faults due to prefetch
system.cpu_cluster.cpus.dtb.read_accesses            0                       # DTB read accesses
system.cpu_cluster.cpus.dtb.read_hits               0                       # DTB read hits
system.cpu_cluster.cpus.dtb.read_misses             0                       # DTB read misses
system.cpu_cluster.cpus.dtb.stage2_mmu.stage2_tlb.accesses            0                       # DTB accesses
system.cpu_cluster.cpus.dtb.stage2_mmu.stage2_tlb.align_faults            0                       # Number of TLB faults due to alignment restrictions
system.cpu_cluster.cpus.dtb.stage2_mmu.stage2_tlb.domain_faults            0                       # Number of TLB faults due to domain restrictions
system.cpu_cluster.cpus.dtb.stage2_mmu.stage2_tlb.flush_entries            0                       # Number of entries that have been flushed from TLB
system.cpu_cluster.cpus.dtb.stage2_mmu.stage2_tlb.flush_tlb            0                       # Number of times complete TLB was flushed
system.cpu_cluster.cpus.dtb.stage2_mmu.stage2_tlb.flush_tlb_asid            0                       # Number of times TLB was flushed by ASID
system.cpu_cluster.cpus.dtb.stage2_mmu.stage2_tlb.flush_tlb_mva            0                       # Number of times TLB was flushed by MVA
system.cpu_cluster.cpus.dtb.stage2_mmu.stage2_tlb.flush_tlb_mva_asid            0                       # Number of times TLB was flushed by MVA & ASID
system.cpu_cluster.cpus.dtb.stage2_mmu.stage2_tlb.hits            0                       # DTB hits
system.cpu_cluster.cpus.dtb.stage2_mmu.stage2_tlb.inst_accesses            0                       # ITB inst accesses
system.cpu_cluster.cpus.dtb.stage2_mmu.stage2_tlb.inst_hits            0                       # ITB inst hits
system.cpu_cluster.cpus.dtb.stage2_mmu.stage2_tlb.inst_misses            0                       # ITB inst misses
system.cpu_cluster.cpus.dtb.stage2_mmu.stage2_tlb.misses            0                       # DTB misses
system.cpu_cluster.cpus.dtb.stage2_mmu.stage2_tlb.perms_faults            0                       # Number of TLB faults due to permissions restrictions
system.cpu_cluster.cpus.dtb.stage2_mmu.stage2_tlb.prefetch_faults            0                       # Number of TLB faults due to prefetch
system.cpu_cluster.cpus.dtb.stage2_mmu.stage2_tlb.read_accesses            0                       # DTB read accesses
system.cpu_cluster.cpus.dtb.stage2_mmu.stage2_tlb.read_hits            0                       # DTB read hits
system.cpu_cluster.cpus.dtb.stage2_mmu.stage2_tlb.read_misses            0                       # DTB read misses
system.cpu_cluster.cpus.dtb.stage2_mmu.stage2_tlb.walker.walkRequestOrigin_Requested::Data            0                       # Table walker requests started/completed, data/inst
system.cpu_cluster.cpus.dtb.stage2_mmu.stage2_tlb.walker.walkRequestOrigin_Requested::Inst            0                       # Table walker requests started/completed, data/inst
system.cpu_cluster.cpus.dtb.stage2_mmu.stage2_tlb.walker.walkRequestOrigin_Requested::total            0                       # Table walker requests started/completed, data/inst
system.cpu_cluster.cpus.dtb.stage2_mmu.stage2_tlb.walker.walkRequestOrigin_Completed::Data            0                       # Table walker requests started/completed, data/inst
system.cpu_cluster.cpus.dtb.stage2_mmu.stage2_tlb.walker.walkRequestOrigin_Completed::Inst            0                       # Table walker requests started/completed, data/inst
system.cpu_cluster.cpus.dtb.stage2_mmu.stage2_tlb.walker.walkRequestOrigin_Completed::total            0                       # Table walker requests started/completed, data/inst
system.cpu_cluster.cpus.dtb.stage2_mmu.stage2_tlb.walker.walkRequestOrigin::total            0                       # Table walker requests started/completed, data/inst
system.cpu_cluster.cpus.dtb.stage2_mmu.stage2_tlb.walker.walks            0                       # Table walker walks requested
system.cpu_cluster.cpus.dtb.stage2_mmu.stage2_tlb.write_accesses            0                       # DTB write accesses
system.cpu_cluster.cpus.dtb.stage2_mmu.stage2_tlb.write_hits            0                       # DTB write hits
system.cpu_cluster.cpus.dtb.stage2_mmu.stage2_tlb.write_misses            0                       # DTB write misses
system.cpu_cluster.cpus.dtb.walker.walkRequestOrigin_Requested::Data            0                       # Table walker requests started/completed, data/inst
system.cpu_cluster.cpus.dtb.walker.walkRequestOrigin_Requested::Inst            0                       # Table walker requests started/completed, data/inst
system.cpu_cluster.cpus.dtb.walker.walkRequestOrigin_Requested::total            0                       # Table walker requests started/completed, data/inst
system.cpu_cluster.cpus.dtb.walker.walkRequestOrigin_Completed::Data            0                       # Table walker requests started/completed, data/inst
system.cpu_cluster.cpus.dtb.walker.walkRequestOrigin_Completed::Inst            0                       # Table walker requests started/completed, data/inst
system.cpu_cluster.cpus.dtb.walker.walkRequestOrigin_Completed::total            0                       # Table walker requests started/completed, data/inst
system.cpu_cluster.cpus.dtb.walker.walkRequestOrigin::total            0                       # Table walker requests started/completed, data/inst
system.cpu_cluster.cpus.dtb.walker.walks            0                       # Table walker walks requested
system.cpu_cluster.cpus.dtb.write_accesses            0                       # DTB write accesses
system.cpu_cluster.cpus.dtb.write_hits              0                       # DTB write hits
system.cpu_cluster.cpus.dtb.write_misses            0                       # DTB write misses
system.cpu_cluster.cpus.fetch2.amo_instructions            0                       # Number of memory atomic instructions successfully decoded
system.cpu_cluster.cpus.fetch2.fp_instructions            0                       # Number of floating point instructions successfully decoded
system.cpu_cluster.cpus.fetch2.int_instructions       107765                       # Number of integer instructions successfully decoded
system.cpu_cluster.cpus.fetch2.load_instructions        27064                       # Number of memory load instructions successfully decoded
system.cpu_cluster.cpus.fetch2.store_instructions        12409                       # Number of memory store instructions successfully decoded
system.cpu_cluster.cpus.fetch2.vec_instructions            0                       # Number of SIMD instructions successfully decoded
system.cpu_cluster.cpus.idleCycles           11483161                       # Total number of cycles that the object has spent stopped
system.cpu_cluster.cpus.ipc                  0.014497                       # IPC: instructions per cycle
system.cpu_cluster.cpus.itb.accesses                0                       # DTB accesses
system.cpu_cluster.cpus.itb.align_faults            0                       # Number of TLB faults due to alignment restrictions
system.cpu_cluster.cpus.itb.domain_faults            0                       # Number of TLB faults due to domain restrictions
system.cpu_cluster.cpus.itb.flush_entries            0                       # Number of entries that have been flushed from TLB
system.cpu_cluster.cpus.itb.flush_tlb               0                       # Number of times complete TLB was flushed
system.cpu_cluster.cpus.itb.flush_tlb_asid            0                       # Number of times TLB was flushed by ASID
system.cpu_cluster.cpus.itb.flush_tlb_mva            0                       # Number of times TLB was flushed by MVA
system.cpu_cluster.cpus.itb.flush_tlb_mva_asid            0                       # Number of times TLB was flushed by MVA & ASID
system.cpu_cluster.cpus.itb.hits                    0                       # DTB hits
system.cpu_cluster.cpus.itb.inst_accesses            0                       # ITB inst accesses
system.cpu_cluster.cpus.itb.inst_hits               0                       # ITB inst hits
system.cpu_cluster.cpus.itb.inst_misses             0                       # ITB inst misses
system.cpu_cluster.cpus.itb.misses                  0                       # DTB misses
system.cpu_cluster.cpus.itb.perms_faults            0                       # Number of TLB faults due to permissions restrictions
system.cpu_cluster.cpus.itb.prefetch_faults            0                       # Number of TLB faults due to prefetch
system.cpu_cluster.cpus.itb.read_accesses            0                       # DTB read accesses
system.cpu_cluster.cpus.itb.read_hits               0                       # DTB read hits
system.cpu_cluster.cpus.itb.read_misses             0                       # DTB read misses
system.cpu_cluster.cpus.itb.stage2_mmu.stage2_tlb.accesses            0                       # DTB accesses
system.cpu_cluster.cpus.itb.stage2_mmu.stage2_tlb.align_faults            0                       # Number of TLB faults due to alignment restrictions
system.cpu_cluster.cpus.itb.stage2_mmu.stage2_tlb.domain_faults            0                       # Number of TLB faults due to domain restrictions
system.cpu_cluster.cpus.itb.stage2_mmu.stage2_tlb.flush_entries            0                       # Number of entries that have been flushed from TLB
system.cpu_cluster.cpus.itb.stage2_mmu.stage2_tlb.flush_tlb            0                       # Number of times complete TLB was flushed
system.cpu_cluster.cpus.itb.stage2_mmu.stage2_tlb.flush_tlb_asid            0                       # Number of times TLB was flushed by ASID
system.cpu_cluster.cpus.itb.stage2_mmu.stage2_tlb.flush_tlb_mva            0                       # Number of times TLB was flushed by MVA
system.cpu_cluster.cpus.itb.stage2_mmu.stage2_tlb.flush_tlb_mva_asid            0                       # Number of times TLB was flushed by MVA & ASID
system.cpu_cluster.cpus.itb.stage2_mmu.stage2_tlb.hits            0                       # DTB hits
system.cpu_cluster.cpus.itb.stage2_mmu.stage2_tlb.inst_accesses            0                       # ITB inst accesses
system.cpu_cluster.cpus.itb.stage2_mmu.stage2_tlb.inst_hits            0                       # ITB inst hits
system.cpu_cluster.cpus.itb.stage2_mmu.stage2_tlb.inst_misses            0                       # ITB inst misses
system.cpu_cluster.cpus.itb.stage2_mmu.stage2_tlb.misses            0                       # DTB misses
system.cpu_cluster.cpus.itb.stage2_mmu.stage2_tlb.perms_faults            0                       # Number of TLB faults due to permissions restrictions
system.cpu_cluster.cpus.itb.stage2_mmu.stage2_tlb.prefetch_faults            0                       # Number of TLB faults due to prefetch
system.cpu_cluster.cpus.itb.stage2_mmu.stage2_tlb.read_accesses            0                       # DTB read accesses
system.cpu_cluster.cpus.itb.stage2_mmu.stage2_tlb.read_hits            0                       # DTB read hits
system.cpu_cluster.cpus.itb.stage2_mmu.stage2_tlb.read_misses            0                       # DTB read misses
system.cpu_cluster.cpus.itb.stage2_mmu.stage2_tlb.walker.walkRequestOrigin_Requested::Data            0                       # Table walker requests started/completed, data/inst
system.cpu_cluster.cpus.itb.stage2_mmu.stage2_tlb.walker.walkRequestOrigin_Requested::Inst            0                       # Table walker requests started/completed, data/inst
system.cpu_cluster.cpus.itb.stage2_mmu.stage2_tlb.walker.walkRequestOrigin_Requested::total            0                       # Table walker requests started/completed, data/inst
system.cpu_cluster.cpus.itb.stage2_mmu.stage2_tlb.walker.walkRequestOrigin_Completed::Data            0                       # Table walker requests started/completed, data/inst
system.cpu_cluster.cpus.itb.stage2_mmu.stage2_tlb.walker.walkRequestOrigin_Completed::Inst            0                       # Table walker requests started/completed, data/inst
system.cpu_cluster.cpus.itb.stage2_mmu.stage2_tlb.walker.walkRequestOrigin_Completed::total            0                       # Table walker requests started/completed, data/inst
system.cpu_cluster.cpus.itb.stage2_mmu.stage2_tlb.walker.walkRequestOrigin::total            0                       # Table walker requests started/completed, data/inst
system.cpu_cluster.cpus.itb.stage2_mmu.stage2_tlb.walker.walks            0                       # Table walker walks requested
system.cpu_cluster.cpus.itb.stage2_mmu.stage2_tlb.write_accesses            0                       # DTB write accesses
system.cpu_cluster.cpus.itb.stage2_mmu.stage2_tlb.write_hits            0                       # DTB write hits
system.cpu_cluster.cpus.itb.stage2_mmu.stage2_tlb.write_misses            0                       # DTB write misses
system.cpu_cluster.cpus.itb.walker.walkRequestOrigin_Requested::Data            0                       # Table walker requests started/completed, data/inst
system.cpu_cluster.cpus.itb.walker.walkRequestOrigin_Requested::Inst            0                       # Table walker requests started/completed, data/inst
system.cpu_cluster.cpus.itb.walker.walkRequestOrigin_Requested::total            0                       # Table walker requests started/completed, data/inst
system.cpu_cluster.cpus.itb.walker.walkRequestOrigin_Completed::Data            0                       # Table walker requests started/completed, data/inst
system.cpu_cluster.cpus.itb.walker.walkRequestOrigin_Completed::Inst            0                       # Table walker requests started/completed, data/inst
system.cpu_cluster.cpus.itb.walker.walkRequestOrigin_Completed::total            0                       # Table walker requests started/completed, data/inst
system.cpu_cluster.cpus.itb.walker.walkRequestOrigin::total            0                       # Table walker requests started/completed, data/inst
system.cpu_cluster.cpus.itb.walker.walks            0                       # Table walker walks requested
system.cpu_cluster.cpus.itb.write_accesses            0                       # DTB write accesses
system.cpu_cluster.cpus.itb.write_hits              0                       # DTB write hits
system.cpu_cluster.cpus.itb.write_misses            0                       # DTB write misses
system.cpu_cluster.cpus.numCycles            12035714                       # number of cpu cycles simulated
system.cpu_cluster.cpus.numFetchSuspends            0                       # Number of times Execute suspended instruction fetching
system.cpu_cluster.cpus.numWorkItemsCompleted            0                       # number of work items this cpu completed
system.cpu_cluster.cpus.numWorkItemsStarted            0                       # number of work items this cpu started
system.cpu_cluster.cpus.op_class_0::No_OpClass            0      0.00%      0.00% # Class of committed instruction
system.cpu_cluster.cpus.op_class_0::IntAlu       137589     66.56%     66.56% # Class of committed instruction
system.cpu_cluster.cpus.op_class_0::IntMult         2280      1.10%     67.66% # Class of committed instruction
system.cpu_cluster.cpus.op_class_0::IntDiv            0      0.00%     67.66% # Class of committed instruction
system.cpu_cluster.cpus.op_class_0::FloatAdd            0      0.00%     67.66% # Class of committed instruction
system.cpu_cluster.cpus.op_class_0::FloatCmp            0      0.00%     67.66% # Class of committed instruction
system.cpu_cluster.cpus.op_class_0::FloatCvt            0      0.00%     67.66% # Class of committed instruction
system.cpu_cluster.cpus.op_class_0::FloatMult            0      0.00%     67.66% # Class of committed instruction
system.cpu_cluster.cpus.op_class_0::FloatMultAcc            0      0.00%     67.66% # Class of committed instruction
system.cpu_cluster.cpus.op_class_0::FloatDiv            0      0.00%     67.66% # Class of committed instruction
system.cpu_cluster.cpus.op_class_0::FloatMisc            0      0.00%     67.66% # Class of committed instruction
system.cpu_cluster.cpus.op_class_0::FloatSqrt            0      0.00%     67.66% # Class of committed instruction
system.cpu_cluster.cpus.op_class_0::SimdAdd            0      0.00%     67.66% # Class of committed instruction
system.cpu_cluster.cpus.op_class_0::SimdAddAcc            0      0.00%     67.66% # Class of committed instruction
system.cpu_cluster.cpus.op_class_0::SimdAlu            0      0.00%     67.66% # Class of committed instruction
system.cpu_cluster.cpus.op_class_0::SimdCmp            0      0.00%     67.66% # Class of committed instruction
system.cpu_cluster.cpus.op_class_0::SimdCvt            0      0.00%     67.66% # Class of committed instruction
system.cpu_cluster.cpus.op_class_0::SimdMisc            0      0.00%     67.66% # Class of committed instruction
system.cpu_cluster.cpus.op_class_0::SimdMult            0      0.00%     67.66% # Class of committed instruction
system.cpu_cluster.cpus.op_class_0::SimdMultAcc            0      0.00%     67.66% # Class of committed instruction
system.cpu_cluster.cpus.op_class_0::SimdShift            0      0.00%     67.66% # Class of committed instruction
system.cpu_cluster.cpus.op_class_0::SimdShiftAcc            0      0.00%     67.66% # Class of committed instruction
system.cpu_cluster.cpus.op_class_0::SimdDiv            0      0.00%     67.66% # Class of committed instruction
system.cpu_cluster.cpus.op_class_0::SimdSqrt            0      0.00%     67.66% # Class of committed instruction
system.cpu_cluster.cpus.op_class_0::SimdFloatAdd            0      0.00%     67.66% # Class of committed instruction
system.cpu_cluster.cpus.op_class_0::SimdFloatAlu            0      0.00%     67.66% # Class of committed instruction
system.cpu_cluster.cpus.op_class_0::SimdFloatCmp            0      0.00%     67.66% # Class of committed instruction
system.cpu_cluster.cpus.op_class_0::SimdFloatCvt            0      0.00%     67.66% # Class of committed instruction
system.cpu_cluster.cpus.op_class_0::SimdFloatDiv            0      0.00%     67.66% # Class of committed instruction
system.cpu_cluster.cpus.op_class_0::SimdFloatMisc            1      0.00%     67.66% # Class of committed instruction
system.cpu_cluster.cpus.op_class_0::SimdFloatMult            0      0.00%     67.66% # Class of committed instruction
system.cpu_cluster.cpus.op_class_0::SimdFloatMultAcc            0      0.00%     67.66% # Class of committed instruction
system.cpu_cluster.cpus.op_class_0::SimdFloatSqrt            0      0.00%     67.66% # Class of committed instruction
system.cpu_cluster.cpus.op_class_0::SimdReduceAdd            0      0.00%     67.66% # Class of committed instruction
system.cpu_cluster.cpus.op_class_0::SimdReduceAlu            0      0.00%     67.66% # Class of committed instruction
system.cpu_cluster.cpus.op_class_0::SimdReduceCmp            0      0.00%     67.66% # Class of committed instruction
system.cpu_cluster.cpus.op_class_0::SimdFloatReduceAdd            0      0.00%     67.66% # Class of committed instruction
system.cpu_cluster.cpus.op_class_0::SimdFloatReduceCmp            0      0.00%     67.66% # Class of committed instruction
system.cpu_cluster.cpus.op_class_0::SimdAes            0      0.00%     67.66% # Class of committed instruction
system.cpu_cluster.cpus.op_class_0::SimdAesMix            0      0.00%     67.66% # Class of committed instruction
system.cpu_cluster.cpus.op_class_0::SimdSha1Hash            0      0.00%     67.66% # Class of committed instruction
system.cpu_cluster.cpus.op_class_0::SimdSha1Hash2            0      0.00%     67.66% # Class of committed instruction
system.cpu_cluster.cpus.op_class_0::SimdSha256Hash            0      0.00%     67.66% # Class of committed instruction
system.cpu_cluster.cpus.op_class_0::SimdSha256Hash2            0      0.00%     67.66% # Class of committed instruction
system.cpu_cluster.cpus.op_class_0::SimdShaSigma2            0      0.00%     67.66% # Class of committed instruction
system.cpu_cluster.cpus.op_class_0::SimdShaSigma3            0      0.00%     67.66% # Class of committed instruction
system.cpu_cluster.cpus.op_class_0::SimdPredAlu            0      0.00%     67.66% # Class of committed instruction
system.cpu_cluster.cpus.op_class_0::MemRead        36600     17.71%     85.37% # Class of committed instruction
system.cpu_cluster.cpus.op_class_0::MemWrite        30243     14.63%    100.00% # Class of committed instruction
system.cpu_cluster.cpus.op_class_0::FloatMemRead            0      0.00%    100.00% # Class of committed instruction
system.cpu_cluster.cpus.op_class_0::FloatMemWrite            0      0.00%    100.00% # Class of committed instruction
system.cpu_cluster.cpus.op_class_0::IprAccess            0      0.00%    100.00% # Class of committed instruction
system.cpu_cluster.cpus.op_class_0::InstPrefetch            0      0.00%    100.00% # Class of committed instruction
system.cpu_cluster.cpus.op_class_0::total       206713                       # Class of committed instruction
system.cpu_cluster.cpus.tickCycles             552553                       # Number of cycles that the object actually ticked
system.cpu_cluster.cpus.workload.numSyscalls          213                       # Number of system calls
system.membus.snoop_filter.hit_multi_requests            0                       # Number of requests hitting in the snoop filter with multiple (>1) holders of the requested data.
system.membus.snoop_filter.hit_multi_snoops            0                       # Number of snoops hitting in the snoop filter with multiple (>1) holders of the requested data.
system.membus.snoop_filter.hit_single_requests            0                       # Number of requests hitting in the snoop filter with a single holder of the requested data.
system.membus.snoop_filter.hit_single_snoops            0                       # Number of snoops hitting in the snoop filter with a single holder of the requested data.
system.membus.snoop_filter.tot_requests             0                       # Total number of requests made to the snoop filter.
system.membus.snoop_filter.tot_snoops               0                       # Total number of snoops made to the snoop filter.
system.membus.pwrStateResidencyTicks::UNDEFINED   3008928500                       # Cumulative time (in ticks) in various power states
system.membus.trans_dist::ReadReq               86262                       # Transaction distribution
system.membus.trans_dist::ReadResp              86681                       # Transaction distribution
system.membus.trans_dist::WriteReq              28896                       # Transaction distribution
system.membus.trans_dist::WriteResp             28895                       # Transaction distribution
system.membus.trans_dist::SoftPFReq                36                       # Transaction distribution
system.membus.trans_dist::SoftPFResp               36                       # Transaction distribution
system.membus.trans_dist::LoadLockedReq           420                       # Transaction distribution
system.membus.trans_dist::StoreCondReq            420                       # Transaction distribution
system.membus.trans_dist::StoreCondResp           420                       # Transaction distribution
system.membus.pkt_count_system.cpu_cluster.cpus.fetch1.icache_port::system.mem_ctrls0.port        54416                       # Packet count per connected master and slave (bytes)
system.membus.pkt_count_system.cpu_cluster.cpus.fetch1.icache_port::system.mem_ctrls1.port        51007                       # Packet count per connected master and slave (bytes)
system.membus.pkt_count_system.cpu_cluster.cpus.fetch1.icache_port::total       105423                       # Packet count per connected master and slave (bytes)
system.membus.pkt_count_system.cpu_cluster.cpus.execute.dcache_port::system.mem_ctrls0.port        63264                       # Packet count per connected master and slave (bytes)
system.membus.pkt_count_system.cpu_cluster.cpus.execute.dcache_port::system.mem_ctrls1.port        63379                       # Packet count per connected master and slave (bytes)
system.membus.pkt_count_system.cpu_cluster.cpus.execute.dcache_port::total       126643                       # Packet count per connected master and slave (bytes)
system.membus.pkt_count::total                 232066                       # Packet count per connected master and slave (bytes)
system.membus.pkt_size_system.cpu_cluster.cpus.fetch1.icache_port::system.mem_ctrls0.port      1741312                       # Cumulative packet size per connected master and slave (bytes)
system.membus.pkt_size_system.cpu_cluster.cpus.fetch1.icache_port::system.mem_ctrls1.port      1632192                       # Cumulative packet size per connected master and slave (bytes)
system.membus.pkt_size_system.cpu_cluster.cpus.fetch1.icache_port::total      3373504                       # Cumulative packet size per connected master and slave (bytes)
system.membus.pkt_size_system.cpu_cluster.cpus.execute.dcache_port::system.mem_ctrls0.port       137530                       # Cumulative packet size per connected master and slave (bytes)
system.membus.pkt_size_system.cpu_cluster.cpus.execute.dcache_port::system.mem_ctrls1.port       135569                       # Cumulative packet size per connected master and slave (bytes)
system.membus.pkt_size_system.cpu_cluster.cpus.execute.dcache_port::total       273099                       # Cumulative packet size per connected master and slave (bytes)
system.membus.pkt_size::total                 3646603                       # Cumulative packet size per connected master and slave (bytes)
system.membus.snoops                                0                       # Total snoops (count)
system.membus.snoopTraffic                          0                       # Total snoop traffic (bytes)
system.membus.snoop_fanout::samples            116034                       # Request fanout histogram
system.membus.snoop_fanout::mean                    0                       # Request fanout histogram
system.membus.snoop_fanout::stdev                   0                       # Request fanout histogram
system.membus.snoop_fanout::underflows              0      0.00%      0.00% # Request fanout histogram
system.membus.snoop_fanout::0                  116034    100.00%    100.00% # Request fanout histogram
system.membus.snoop_fanout::1                       0      0.00%    100.00% # Request fanout histogram
system.membus.snoop_fanout::overflows               0      0.00%    100.00% # Request fanout histogram
system.membus.snoop_fanout::min_value               0                       # Request fanout histogram
system.membus.snoop_fanout::max_value               0                       # Request fanout histogram
system.membus.snoop_fanout::total              116034                       # Request fanout histogram
system.membus.reqLayer0.occupancy           100350000                       # Layer occupancy (ticks)
system.membus.reqLayer0.utilization               3.3                       # Layer utilization (%)
system.membus.reqLayer1.occupancy            97657250                       # Layer occupancy (ticks)
system.membus.reqLayer1.utilization               3.2                       # Layer utilization (%)
system.membus.respLayer1.occupancy          279240500                       # Layer occupancy (ticks)
system.membus.respLayer1.utilization              9.3                       # Layer utilization (%)
system.membus.respLayer2.occupancy          108185000                       # Layer occupancy (ticks)
system.membus.respLayer2.utilization              3.6                       # Layer utilization (%)
system.voltage_domain.voltage                3.300000                       # Voltage in Volts
system.mem_ctrls0.pwrStateResidencyTicks::UNDEFINED   3008928500                       # Cumulative time (in ticks) in various power states
system.mem_ctrls0.bytes_read::.cpu_cluster.cpus.inst      1741312                       # Number of bytes read from this memory
system.mem_ctrls0.bytes_read::.cpu_cluster.cpus.data        78172                       # Number of bytes read from this memory
system.mem_ctrls0.bytes_read::total           1819484                       # Number of bytes read from this memory
system.mem_ctrls0.bytes_inst_read::.cpu_cluster.cpus.inst      1741312                       # Number of instructions bytes read from this memory
system.mem_ctrls0.bytes_inst_read::total      1741312                       # Number of instructions bytes read from this memory
system.mem_ctrls0.bytes_written::.cpu_cluster.cpus.data        59358                       # Number of bytes written to this memory
system.mem_ctrls0.bytes_written::total          59358                       # Number of bytes written to this memory
system.mem_ctrls0.num_reads::.cpu_cluster.cpus.inst        27208                       # Number of read requests responded to by this memory
system.mem_ctrls0.num_reads::.cpu_cluster.cpus.data        16834                       # Number of read requests responded to by this memory
system.mem_ctrls0.num_reads::total              44042                       # Number of read requests responded to by this memory
system.mem_ctrls0.num_writes::.cpu_cluster.cpus.data        14798                       # Number of write requests responded to by this memory
system.mem_ctrls0.num_writes::total             14798                       # Number of write requests responded to by this memory
system.mem_ctrls0.bw_read::.cpu_cluster.cpus.inst    578714981                       # Total read bandwidth from this memory (bytes/s)
system.mem_ctrls0.bw_read::.cpu_cluster.cpus.data     25980012                       # Total read bandwidth from this memory (bytes/s)
system.mem_ctrls0.bw_read::total            604694994                       # Total read bandwidth from this memory (bytes/s)
system.mem_ctrls0.bw_inst_read::.cpu_cluster.cpus.inst    578714981                       # Instruction read bandwidth from this memory (bytes/s)
system.mem_ctrls0.bw_inst_read::total       578714981                       # Instruction read bandwidth from this memory (bytes/s)
system.mem_ctrls0.bw_write::.cpu_cluster.cpus.data     19727288                       # Write bandwidth from this memory (bytes/s)
system.mem_ctrls0.bw_write::total            19727288                       # Write bandwidth from this memory (bytes/s)
system.mem_ctrls0.bw_total::.cpu_cluster.cpus.inst    578714981                       # Total bandwidth to/from this memory (bytes/s)
system.mem_ctrls0.bw_total::.cpu_cluster.cpus.data     45707301                       # Total bandwidth to/from this memory (bytes/s)
system.mem_ctrls0.bw_total::total           624422282                       # Total bandwidth to/from this memory (bytes/s)
system.mem_ctrls0.avgPriority_.cpu_cluster.cpus.inst::samples     27208.00                       # Average QoS priority value for accepted requests
system.mem_ctrls0.avgPriority_.cpu_cluster.cpus.data::samples     14601.00                       # Average QoS priority value for accepted requests
system.mem_ctrls0.priorityMinLatency     0.000000018750                       # per QoS priority minimum request to response latency (s)
system.mem_ctrls0.priorityMaxLatency     0.000250682750                       # per QoS priority maximum request to response latency (s)
system.mem_ctrls0.numReadWriteTurnArounds            2                       # Number of turnarounds from READ to WRITE
system.mem_ctrls0.numWriteReadTurnArounds            2                       # Number of turnarounds from WRITE to READ
system.mem_ctrls0.numStayReadState              98456                       # Number of times bus staying in READ state
system.mem_ctrls0.numStayWriteState                32                       # Number of times bus staying in WRITE state
system.mem_ctrls0.readReqs                      44042                       # Number of read requests accepted
system.mem_ctrls0.writeReqs                     14798                       # Number of write requests accepted
system.mem_ctrls0.readBursts                    44042                       # Number of DRAM read bursts, including those serviced by the write queue
system.mem_ctrls0.writeBursts                   14798                       # Number of DRAM write bursts, including those merged in the write queue
system.mem_ctrls0.servicedByWrQ                  2294                       # Number of DRAM read bursts serviced by the write queue
system.mem_ctrls0.mergedWrBursts                14737                       # Number of DRAM write bursts merged with an existing one
system.mem_ctrls0.neitherReadNorWriteReqs            0                       # Number of requests that are neither read nor write
system.mem_ctrls0.perBankRdBursts::0             1752                       # Per bank write bursts
system.mem_ctrls0.perBankRdBursts::1             8303                       # Per bank write bursts
system.mem_ctrls0.perBankRdBursts::2              203                       # Per bank write bursts
system.mem_ctrls0.perBankRdBursts::3             9142                       # Per bank write bursts
system.mem_ctrls0.perBankRdBursts::4            10043                       # Per bank write bursts
system.mem_ctrls0.perBankRdBursts::5               30                       # Per bank write bursts
system.mem_ctrls0.perBankRdBursts::6                4                       # Per bank write bursts
system.mem_ctrls0.perBankRdBursts::7             8621                       # Per bank write bursts
system.mem_ctrls0.perBankRdBursts::8                0                       # Per bank write bursts
system.mem_ctrls0.perBankRdBursts::9                7                       # Per bank write bursts
system.mem_ctrls0.perBankRdBursts::10              98                       # Per bank write bursts
system.mem_ctrls0.perBankRdBursts::11             277                       # Per bank write bursts
system.mem_ctrls0.perBankRdBursts::12            1976                       # Per bank write bursts
system.mem_ctrls0.perBankRdBursts::13            1236                       # Per bank write bursts
system.mem_ctrls0.perBankRdBursts::14              56                       # Per bank write bursts
system.mem_ctrls0.perBankRdBursts::15               0                       # Per bank write bursts
system.mem_ctrls0.perBankWrBursts::0                0                       # Per bank write bursts
system.mem_ctrls0.perBankWrBursts::1                0                       # Per bank write bursts
system.mem_ctrls0.perBankWrBursts::2                0                       # Per bank write bursts
system.mem_ctrls0.perBankWrBursts::3               14                       # Per bank write bursts
system.mem_ctrls0.perBankWrBursts::4               20                       # Per bank write bursts
system.mem_ctrls0.perBankWrBursts::5                0                       # Per bank write bursts
system.mem_ctrls0.perBankWrBursts::6                0                       # Per bank write bursts
system.mem_ctrls0.perBankWrBursts::7                0                       # Per bank write bursts
system.mem_ctrls0.perBankWrBursts::8                0                       # Per bank write bursts
system.mem_ctrls0.perBankWrBursts::9                0                       # Per bank write bursts
system.mem_ctrls0.perBankWrBursts::10               0                       # Per bank write bursts
system.mem_ctrls0.perBankWrBursts::11               0                       # Per bank write bursts
system.mem_ctrls0.perBankWrBursts::12               0                       # Per bank write bursts
system.mem_ctrls0.perBankWrBursts::13               0                       # Per bank write bursts
system.mem_ctrls0.perBankWrBursts::14               0                       # Per bank write bursts
system.mem_ctrls0.perBankWrBursts::15               0                       # Per bank write bursts
system.mem_ctrls0.avgRdQLen                      1.20                       # Average read queue length when enqueuing
system.mem_ctrls0.avgWrQLen                     22.56                       # Average write queue length when enqueuing
system.mem_ctrls0.totQLat                   242856750                       # Total ticks spent queuing
system.mem_ctrls0.totBusLat                 208740000                       # Total ticks spent in databus transfers
system.mem_ctrls0.totMemAccLat             1025631750                       # Total ticks spent from burst creation until serviced by the DRAM
system.mem_ctrls0.avgQLat                     5817.21                       # Average queueing delay per DRAM burst
system.mem_ctrls0.avgBusLat                   5000.00                       # Average bus latency per DRAM burst
system.mem_ctrls0.avgMemAccLat               24567.21                       # Average memory access latency per DRAM burst
system.mem_ctrls0.numRdRetry                        0                       # Number of times read queue was full causing retry
system.mem_ctrls0.numWrRetry                        0                       # Number of times write queue was full causing retry
system.mem_ctrls0.readRowHits                   35208                       # Number of row buffer hits during reads
system.mem_ctrls0.writeRowHits                     33                       # Number of row buffer hits during writes
system.mem_ctrls0.readRowHitRate                84.33                       # Row buffer hit rate for reads
system.mem_ctrls0.writeRowHitRate               54.10                       # Row buffer hit rate for writes
system.mem_ctrls0.readPktSize::0                 1176                       # Read request sizes (log2)
system.mem_ctrls0.readPktSize::1                  312                       # Read request sizes (log2)
system.mem_ctrls0.readPktSize::2                11599                       # Read request sizes (log2)
system.mem_ctrls0.readPktSize::3                 3747                       # Read request sizes (log2)
system.mem_ctrls0.readPktSize::4                    0                       # Read request sizes (log2)
system.mem_ctrls0.readPktSize::5                    0                       # Read request sizes (log2)
system.mem_ctrls0.readPktSize::6                27208                       # Read request sizes (log2)
system.mem_ctrls0.writePktSize::0                 886                       # Write request sizes (log2)
system.mem_ctrls0.writePktSize::1                   8                       # Write request sizes (log2)
system.mem_ctrls0.writePktSize::2               13194                       # Write request sizes (log2)
system.mem_ctrls0.writePktSize::3                 710                       # Write request sizes (log2)
system.mem_ctrls0.writePktSize::4                   0                       # Write request sizes (log2)
system.mem_ctrls0.writePktSize::5                   0                       # Write request sizes (log2)
system.mem_ctrls0.writePktSize::6                   0                       # Write request sizes (log2)
system.mem_ctrls0.rdQLenPdf::0                  35361                       # What read queue length does an incoming req see
system.mem_ctrls0.rdQLenPdf::1                   6193                       # What read queue length does an incoming req see
system.mem_ctrls0.rdQLenPdf::2                    194                       # What read queue length does an incoming req see
system.mem_ctrls0.rdQLenPdf::3                      0                       # What read queue length does an incoming req see
system.mem_ctrls0.rdQLenPdf::4                      0                       # What read queue length does an incoming req see
system.mem_ctrls0.rdQLenPdf::5                      0                       # What read queue length does an incoming req see
system.mem_ctrls0.rdQLenPdf::6                      0                       # What read queue length does an incoming req see
system.mem_ctrls0.rdQLenPdf::7                      0                       # What read queue length does an incoming req see
system.mem_ctrls0.rdQLenPdf::8                      0                       # What read queue length does an incoming req see
system.mem_ctrls0.rdQLenPdf::9                      0                       # What read queue length does an incoming req see
system.mem_ctrls0.rdQLenPdf::10                     0                       # What read queue length does an incoming req see
system.mem_ctrls0.rdQLenPdf::11                     0                       # What read queue length does an incoming req see
system.mem_ctrls0.rdQLenPdf::12                     0                       # What read queue length does an incoming req see
system.mem_ctrls0.rdQLenPdf::13                     0                       # What read queue length does an incoming req see
system.mem_ctrls0.rdQLenPdf::14                     0                       # What read queue length does an incoming req see
system.mem_ctrls0.rdQLenPdf::15                     0                       # What read queue length does an incoming req see
system.mem_ctrls0.rdQLenPdf::16                     0                       # What read queue length does an incoming req see
system.mem_ctrls0.rdQLenPdf::17                     0                       # What read queue length does an incoming req see
system.mem_ctrls0.rdQLenPdf::18                     0                       # What read queue length does an incoming req see
system.mem_ctrls0.rdQLenPdf::19                     0                       # What read queue length does an incoming req see
system.mem_ctrls0.rdQLenPdf::20                     0                       # What read queue length does an incoming req see
system.mem_ctrls0.rdQLenPdf::21                     0                       # What read queue length does an incoming req see
system.mem_ctrls0.rdQLenPdf::22                     0                       # What read queue length does an incoming req see
system.mem_ctrls0.rdQLenPdf::23                     0                       # What read queue length does an incoming req see
system.mem_ctrls0.rdQLenPdf::24                     0                       # What read queue length does an incoming req see
system.mem_ctrls0.rdQLenPdf::25                     0                       # What read queue length does an incoming req see
system.mem_ctrls0.rdQLenPdf::26                     0                       # What read queue length does an incoming req see
system.mem_ctrls0.rdQLenPdf::27                     0                       # What read queue length does an incoming req see
system.mem_ctrls0.rdQLenPdf::28                     0                       # What read queue length does an incoming req see
system.mem_ctrls0.rdQLenPdf::29                     0                       # What read queue length does an incoming req see
system.mem_ctrls0.rdQLenPdf::30                     0                       # What read queue length does an incoming req see
system.mem_ctrls0.rdQLenPdf::31                     0                       # What read queue length does an incoming req see
system.mem_ctrls0.wrQLenPdf::0                      1                       # What write queue length does an incoming req see
system.mem_ctrls0.wrQLenPdf::1                      1                       # What write queue length does an incoming req see
system.mem_ctrls0.wrQLenPdf::2                      1                       # What write queue length does an incoming req see
system.mem_ctrls0.wrQLenPdf::3                      1                       # What write queue length does an incoming req see
system.mem_ctrls0.wrQLenPdf::4                      1                       # What write queue length does an incoming req see
system.mem_ctrls0.wrQLenPdf::5                      1                       # What write queue length does an incoming req see
system.mem_ctrls0.wrQLenPdf::6                      1                       # What write queue length does an incoming req see
system.mem_ctrls0.wrQLenPdf::7                      1                       # What write queue length does an incoming req see
system.mem_ctrls0.wrQLenPdf::8                      1                       # What write queue length does an incoming req see
system.mem_ctrls0.wrQLenPdf::9                      1                       # What write queue length does an incoming req see
system.mem_ctrls0.wrQLenPdf::10                     1                       # What write queue length does an incoming req see
system.mem_ctrls0.wrQLenPdf::11                     1                       # What write queue length does an incoming req see
system.mem_ctrls0.wrQLenPdf::12                     1                       # What write queue length does an incoming req see
system.mem_ctrls0.wrQLenPdf::13                     1                       # What write queue length does an incoming req see
system.mem_ctrls0.wrQLenPdf::14                     1                       # What write queue length does an incoming req see
system.mem_ctrls0.wrQLenPdf::15                     2                       # What write queue length does an incoming req see
system.mem_ctrls0.wrQLenPdf::16                     2                       # What write queue length does an incoming req see
system.mem_ctrls0.wrQLenPdf::17                     3                       # What write queue length does an incoming req see
system.mem_ctrls0.wrQLenPdf::18                     3                       # What write queue length does an incoming req see
system.mem_ctrls0.wrQLenPdf::19                     3                       # What write queue length does an incoming req see
system.mem_ctrls0.wrQLenPdf::20                     3                       # What write queue length does an incoming req see
system.mem_ctrls0.wrQLenPdf::21                     3                       # What write queue length does an incoming req see
system.mem_ctrls0.wrQLenPdf::22                     3                       # What write queue length does an incoming req see
system.mem_ctrls0.wrQLenPdf::23                     3                       # What write queue length does an incoming req see
system.mem_ctrls0.wrQLenPdf::24                     3                       # What write queue length does an incoming req see
system.mem_ctrls0.wrQLenPdf::25                     3                       # What write queue length does an incoming req see
system.mem_ctrls0.wrQLenPdf::26                     3                       # What write queue length does an incoming req see
system.mem_ctrls0.wrQLenPdf::27                     2                       # What write queue length does an incoming req see
system.mem_ctrls0.wrQLenPdf::28                     2                       # What write queue length does an incoming req see
system.mem_ctrls0.wrQLenPdf::29                     2                       # What write queue length does an incoming req see
system.mem_ctrls0.wrQLenPdf::30                     2                       # What write queue length does an incoming req see
system.mem_ctrls0.wrQLenPdf::31                     2                       # What write queue length does an incoming req see
system.mem_ctrls0.wrQLenPdf::32                     2                       # What write queue length does an incoming req see
system.mem_ctrls0.wrQLenPdf::33                     0                       # What write queue length does an incoming req see
system.mem_ctrls0.wrQLenPdf::34                     0                       # What write queue length does an incoming req see
system.mem_ctrls0.wrQLenPdf::35                     0                       # What write queue length does an incoming req see
system.mem_ctrls0.wrQLenPdf::36                     0                       # What write queue length does an incoming req see
system.mem_ctrls0.wrQLenPdf::37                     0                       # What write queue length does an incoming req see
system.mem_ctrls0.wrQLenPdf::38                     0                       # What write queue length does an incoming req see
system.mem_ctrls0.wrQLenPdf::39                     0                       # What write queue length does an incoming req see
system.mem_ctrls0.wrQLenPdf::40                     0                       # What write queue length does an incoming req see
system.mem_ctrls0.wrQLenPdf::41                     0                       # What write queue length does an incoming req see
system.mem_ctrls0.wrQLenPdf::42                     0                       # What write queue length does an incoming req see
system.mem_ctrls0.wrQLenPdf::43                     0                       # What write queue length does an incoming req see
system.mem_ctrls0.wrQLenPdf::44                     0                       # What write queue length does an incoming req see
system.mem_ctrls0.wrQLenPdf::45                     0                       # What write queue length does an incoming req see
system.mem_ctrls0.wrQLenPdf::46                     0                       # What write queue length does an incoming req see
system.mem_ctrls0.wrQLenPdf::47                     0                       # What write queue length does an incoming req see
system.mem_ctrls0.wrQLenPdf::48                     0                       # What write queue length does an incoming req see
system.mem_ctrls0.wrQLenPdf::49                     0                       # What write queue length does an incoming req see
system.mem_ctrls0.wrQLenPdf::50                     0                       # What write queue length does an incoming req see
system.mem_ctrls0.wrQLenPdf::51                     0                       # What write queue length does an incoming req see
system.mem_ctrls0.wrQLenPdf::52                     0                       # What write queue length does an incoming req see
system.mem_ctrls0.wrQLenPdf::53                     0                       # What write queue length does an incoming req see
system.mem_ctrls0.wrQLenPdf::54                     0                       # What write queue length does an incoming req see
system.mem_ctrls0.wrQLenPdf::55                     0                       # What write queue length does an incoming req see
system.mem_ctrls0.wrQLenPdf::56                     0                       # What write queue length does an incoming req see
system.mem_ctrls0.wrQLenPdf::57                     0                       # What write queue length does an incoming req see
system.mem_ctrls0.wrQLenPdf::58                     0                       # What write queue length does an incoming req see
system.mem_ctrls0.wrQLenPdf::59                     0                       # What write queue length does an incoming req see
system.mem_ctrls0.wrQLenPdf::60                     0                       # What write queue length does an incoming req see
system.mem_ctrls0.wrQLenPdf::61                     0                       # What write queue length does an incoming req see
system.mem_ctrls0.wrQLenPdf::62                     0                       # What write queue length does an incoming req see
system.mem_ctrls0.wrQLenPdf::63                     0                       # What write queue length does an incoming req see
system.mem_ctrls0.bytesPerActivate::samples         6537                       # Bytes accessed per row activation
system.mem_ctrls0.bytesPerActivate::mean   408.877467                       # Bytes accessed per row activation
system.mem_ctrls0.bytesPerActivate::gmean   266.571034                       # Bytes accessed per row activation
system.mem_ctrls0.bytesPerActivate::stdev   347.267429                       # Bytes accessed per row activation
system.mem_ctrls0.bytesPerActivate::0-127         1264     19.34%     19.34% # Bytes accessed per row activation
system.mem_ctrls0.bytesPerActivate::128-255         1460     22.33%     41.67% # Bytes accessed per row activation
system.mem_ctrls0.bytesPerActivate::256-383         1015     15.53%     57.20% # Bytes accessed per row activation
system.mem_ctrls0.bytesPerActivate::384-511          827     12.65%     69.85% # Bytes accessed per row activation
system.mem_ctrls0.bytesPerActivate::512-639          266      4.07%     73.92% # Bytes accessed per row activation
system.mem_ctrls0.bytesPerActivate::640-767          203      3.11%     77.02% # Bytes accessed per row activation
system.mem_ctrls0.bytesPerActivate::768-895          230      3.52%     80.54% # Bytes accessed per row activation
system.mem_ctrls0.bytesPerActivate::896-1023          191      2.92%     83.46% # Bytes accessed per row activation
system.mem_ctrls0.bytesPerActivate::1024-1151         1081     16.54%    100.00% # Bytes accessed per row activation
system.mem_ctrls0.bytesPerActivate::total         6537                       # Bytes accessed per row activation
system.mem_ctrls0.rdPerTurnAround::samples            2                       # Reads before turning the bus around for writes
system.mem_ctrls0.rdPerTurnAround::mean    968.500000                       # Reads before turning the bus around for writes
system.mem_ctrls0.rdPerTurnAround::gmean   902.073168                       # Reads before turning the bus around for writes
system.mem_ctrls0.rdPerTurnAround::stdev   498.510281                       # Reads before turning the bus around for writes
system.mem_ctrls0.rdPerTurnAround::576-639            1     50.00%     50.00% # Reads before turning the bus around for writes
system.mem_ctrls0.rdPerTurnAround::1280-1343            1     50.00%    100.00% # Reads before turning the bus around for writes
system.mem_ctrls0.rdPerTurnAround::total            2                       # Reads before turning the bus around for writes
system.mem_ctrls0.wrPerTurnAround::samples            2                       # Writes before turning the bus around for reads
system.mem_ctrls0.wrPerTurnAround::mean            17                       # Writes before turning the bus around for reads
system.mem_ctrls0.wrPerTurnAround::gmean    16.970563                       # Writes before turning the bus around for reads
system.mem_ctrls0.wrPerTurnAround::stdev     1.414214                       # Writes before turning the bus around for reads
system.mem_ctrls0.wrPerTurnAround::16               1     50.00%     50.00% # Writes before turning the bus around for reads
system.mem_ctrls0.wrPerTurnAround::18               1     50.00%    100.00% # Writes before turning the bus around for reads
system.mem_ctrls0.wrPerTurnAround::total            2                       # Writes before turning the bus around for reads
system.mem_ctrls0.bytesReadDRAM               2671872                       # Total number of bytes read from DRAM
system.mem_ctrls0.bytesReadWrQ                 146816                       # Total number of bytes read from write queue
system.mem_ctrls0.bytesWritten                   2176                       # Total number of bytes written to DRAM
system.mem_ctrls0.bytesReadSys                1819484                       # Total read bytes from the system interface side
system.mem_ctrls0.bytesWrittenSys               59358                       # Total written bytes from the system interface side
system.mem_ctrls0.avgRdBW                      887.98                       # Average DRAM read bandwidth in MiByte/s
system.mem_ctrls0.avgWrBW                        0.72                       # Average achieved write bandwidth in MiByte/s
system.mem_ctrls0.avgRdBWSys                   604.69                       # Average system read bandwidth in MiByte/s
system.mem_ctrls0.avgWrBWSys                    19.73                       # Average system write bandwidth in MiByte/s
system.mem_ctrls0.peakBW                     12800.00                       # Theoretical peak bandwidth in MiByte/s
system.mem_ctrls0.busUtil                        6.94                       # Data bus utilization in percentage
system.mem_ctrls0.busUtilRead                    6.94                       # Data bus utilization in percentage for reads
system.mem_ctrls0.busUtilWrite                   0.01                       # Data bus utilization in percentage for writes
system.mem_ctrls0.totGap                   3008629000                       # Total gap between requests
system.mem_ctrls0.avgGap                     51132.38                       # Average gap between requests
system.mem_ctrls0.masterReadBytes::.cpu_cluster.cpus.inst      1741312                       # Per-master bytes read from memory
system.mem_ctrls0.masterReadBytes::.cpu_cluster.cpus.data        68996                       # Per-master bytes read from memory
system.mem_ctrls0.masterWriteBytes::.cpu_cluster.cpus.data          144                       # Per-master bytes write to memory
system.mem_ctrls0.masterReadRate::.cpu_cluster.cpus.inst 578714981.097091555595                       # Per-master bytes read from memory rate (Bytes/sec)
system.mem_ctrls0.masterReadRate::.cpu_cluster.cpus.data 22930421.909327525645                       # Per-master bytes read from memory rate (Bytes/sec)
system.mem_ctrls0.masterWriteRate::.cpu_cluster.cpus.data 47857.567901663337                       # Per-master bytes write to memory rate (Bytes/sec)
system.mem_ctrls0.masterReadAccesses::.cpu_cluster.cpus.inst        27208                       # Per-master read serviced memory accesses
system.mem_ctrls0.masterReadAccesses::.cpu_cluster.cpus.data        16834                       # Per-master read serviced memory accesses
system.mem_ctrls0.masterWriteAccesses::.cpu_cluster.cpus.data        14798                       # Per-master write serviced memory accesses
system.mem_ctrls0.masterReadTotalLat::.cpu_cluster.cpus.inst    638968000                       # Per-master read total memory access latency
system.mem_ctrls0.masterReadTotalLat::.cpu_cluster.cpus.data    386663750                       # Per-master read total memory access latency
system.mem_ctrls0.masterWriteTotalLat::.cpu_cluster.cpus.data   3059253750                       # Per-master write total memory access latency
system.mem_ctrls0.masterReadAvgLat::.cpu_cluster.cpus.inst     23484.56                       # Per-master read average memory access latency
system.mem_ctrls0.masterReadAvgLat::.cpu_cluster.cpus.data     22969.21                       # Per-master read average memory access latency
system.mem_ctrls0.masterWriteAvgLat::.cpu_cluster.cpus.data    206734.27                       # Per-master write average memory access latency
system.mem_ctrls0.pageHitRate                   84.29                       # Row buffer hit rate, read and write combined
system.mem_ctrls0.rank1.actEnergy             3405780                       # Energy for activate commands per rank (pJ)
system.mem_ctrls0.rank1.preEnergy             1810215                       # Energy for precharge commands per rank (pJ)
system.mem_ctrls0.rank1.readEnergy           26061000                       # Energy for read commands per rank (pJ)
system.mem_ctrls0.rank1.writeEnergy                 0                       # Energy for write commands per rank (pJ)
system.mem_ctrls0.rank1.refreshEnergy    237251040.000000                       # Energy for refresh commands per rank (pJ)
system.mem_ctrls0.rank1.actBackEnergy       815832450                       # Energy for active background per rank (pJ)
system.mem_ctrls0.rank1.preBackEnergy       468411840                       # Energy for precharge background per rank (pJ)
system.mem_ctrls0.rank1.actPowerDownEnergy            0                       # Energy for active power-down per rank (pJ)
system.mem_ctrls0.rank1.prePowerDownEnergy            0                       # Energy for precharge power-down per rank (pJ)
system.mem_ctrls0.rank1.selfRefreshEnergy            0                       # Energy for self refresh per rank (pJ)
system.mem_ctrls0.rank1.totalEnergy        1552772325                       # Total energy per rank (pJ)
system.mem_ctrls0.rank1.averagePower       516.054910                       # Core power per rank (mW)
system.mem_ctrls0.rank1.totalIdleTime               0                       # Total Idle time Per DRAM Rank
system.mem_ctrls0.rank1.memoryStateTime::IDLE   1209117250                       # Time in different power states
system.mem_ctrls0.rank1.memoryStateTime::REF    100360000                       # Time in different power states
system.mem_ctrls0.rank1.memoryStateTime::SREF            0                       # Time in different power states
system.mem_ctrls0.rank1.memoryStateTime::PRE_PDN            0                       # Time in different power states
system.mem_ctrls0.rank1.memoryStateTime::ACT   1699451250                       # Time in different power states
system.mem_ctrls0.rank1.memoryStateTime::ACT_PDN            0                       # Time in different power states
system.mem_ctrls0.rank0.actEnergy            43296960                       # Energy for activate commands per rank (pJ)
system.mem_ctrls0.rank0.preEnergy            22997700                       # Energy for precharge commands per rank (pJ)
system.mem_ctrls0.rank0.readEnergy          272019720                       # Energy for read commands per rank (pJ)
system.mem_ctrls0.rank0.writeEnergy            177480                       # Energy for write commands per rank (pJ)
system.mem_ctrls0.rank0.refreshEnergy    237251040.000000                       # Energy for refresh commands per rank (pJ)
system.mem_ctrls0.rank0.actBackEnergy      1350449130                       # Energy for active background per rank (pJ)
system.mem_ctrls0.rank0.preBackEnergy        18208320                       # Energy for precharge background per rank (pJ)
system.mem_ctrls0.rank0.actPowerDownEnergy            0                       # Energy for active power-down per rank (pJ)
system.mem_ctrls0.rank0.prePowerDownEnergy            0                       # Energy for precharge power-down per rank (pJ)
system.mem_ctrls0.rank0.selfRefreshEnergy            0                       # Energy for self refresh per rank (pJ)
system.mem_ctrls0.rank0.totalEnergy        1944400350                       # Total energy per rank (pJ)
system.mem_ctrls0.rank0.averagePower       646.210221                       # Core power per rank (mW)
system.mem_ctrls0.rank0.totalIdleTime               0                       # Total Idle time Per DRAM Rank
system.mem_ctrls0.rank0.memoryStateTime::IDLE     36215000                       # Time in different power states
system.mem_ctrls0.rank0.memoryStateTime::REF    100360000                       # Time in different power states
system.mem_ctrls0.rank0.memoryStateTime::SREF            0                       # Time in different power states
system.mem_ctrls0.rank0.memoryStateTime::PRE_PDN            0                       # Time in different power states
system.mem_ctrls0.rank0.memoryStateTime::ACT   2872353500                       # Time in different power states
system.mem_ctrls0.rank0.memoryStateTime::ACT_PDN            0                       # Time in different power states
system.mem_ctrls1.pwrStateResidencyTicks::UNDEFINED   3008928500                       # Cumulative time (in ticks) in various power states
system.mem_ctrls1.bytes_read::.cpu_cluster.cpus.inst      1632192                       # Number of bytes read from this memory
system.mem_ctrls1.bytes_read::.cpu_cluster.cpus.data        78157                       # Number of bytes read from this memory
system.mem_ctrls1.bytes_read::total           1710349                       # Number of bytes read from this memory
system.mem_ctrls1.bytes_inst_read::.cpu_cluster.cpus.inst      1632192                       # Number of instructions bytes read from this memory
system.mem_ctrls1.bytes_inst_read::total      1632192                       # Number of instructions bytes read from this memory
system.mem_ctrls1.bytes_written::.cpu_cluster.cpus.data        57412                       # Number of bytes written to this memory
system.mem_ctrls1.bytes_written::total          57412                       # Number of bytes written to this memory
system.mem_ctrls1.num_reads::.cpu_cluster.cpus.inst        25503                       # Number of read requests responded to by this memory
system.mem_ctrls1.num_reads::.cpu_cluster.cpus.data        17172                       # Number of read requests responded to by this memory
system.mem_ctrls1.num_reads::total              42675                       # Number of read requests responded to by this memory
system.mem_ctrls1.num_writes::.cpu_cluster.cpus.data        14518                       # Number of write requests responded to by this memory
system.mem_ctrls1.num_writes::total             14518                       # Number of write requests responded to by this memory
system.mem_ctrls1.bw_read::.cpu_cluster.cpus.inst    542449580                       # Total read bandwidth from this memory (bytes/s)
system.mem_ctrls1.bw_read::.cpu_cluster.cpus.data     25975027                       # Total read bandwidth from this memory (bytes/s)
system.mem_ctrls1.bw_read::total            568424607                       # Total read bandwidth from this memory (bytes/s)
system.mem_ctrls1.bw_inst_read::.cpu_cluster.cpus.inst    542449580                       # Instruction read bandwidth from this memory (bytes/s)
system.mem_ctrls1.bw_inst_read::total       542449580                       # Instruction read bandwidth from this memory (bytes/s)
system.mem_ctrls1.bw_write::.cpu_cluster.cpus.data     19080546                       # Write bandwidth from this memory (bytes/s)
system.mem_ctrls1.bw_write::total            19080546                       # Write bandwidth from this memory (bytes/s)
system.mem_ctrls1.bw_total::.cpu_cluster.cpus.inst    542449580                       # Total bandwidth to/from this memory (bytes/s)
system.mem_ctrls1.bw_total::.cpu_cluster.cpus.data     45055574                       # Total bandwidth to/from this memory (bytes/s)
system.mem_ctrls1.bw_total::total           587505153                       # Total bandwidth to/from this memory (bytes/s)
system.mem_ctrls1.avgPriority_.cpu_cluster.cpus.inst::samples     25504.00                       # Average QoS priority value for accepted requests
system.mem_ctrls1.avgPriority_.cpu_cluster.cpus.data::samples     16348.00                       # Average QoS priority value for accepted requests
system.mem_ctrls1.priorityMinLatency     0.000000018750                       # per QoS priority minimum request to response latency (s)
system.mem_ctrls1.priorityMaxLatency     0.001445091000                       # per QoS priority maximum request to response latency (s)
system.mem_ctrls1.numReadWriteTurnArounds            2                       # Number of turnarounds from READ to WRITE
system.mem_ctrls1.numWriteReadTurnArounds            2                       # Number of turnarounds from WRITE to READ
system.mem_ctrls1.numStayReadState              98565                       # Number of times bus staying in READ state
system.mem_ctrls1.numStayWriteState                30                       # Number of times bus staying in WRITE state
system.mem_ctrls1.readReqs                      42676                       # Number of read requests accepted
system.mem_ctrls1.writeReqs                     14518                       # Number of write requests accepted
system.mem_ctrls1.readBursts                    42676                       # Number of DRAM read bursts, including those serviced by the write queue
system.mem_ctrls1.writeBursts                   14518                       # Number of DRAM write bursts, including those merged in the write queue
system.mem_ctrls1.servicedByWrQ                   883                       # Number of DRAM read bursts serviced by the write queue
system.mem_ctrls1.mergedWrBursts                14459                       # Number of DRAM write bursts merged with an existing one
system.mem_ctrls1.neitherReadNorWriteReqs            0                       # Number of requests that are neither read nor write
system.mem_ctrls1.perBankRdBursts::0             2295                       # Per bank write bursts
system.mem_ctrls1.perBankRdBursts::1            10405                       # Per bank write bursts
system.mem_ctrls1.perBankRdBursts::2             1323                       # Per bank write bursts
system.mem_ctrls1.perBankRdBursts::3             4205                       # Per bank write bursts
system.mem_ctrls1.perBankRdBursts::4            10888                       # Per bank write bursts
system.mem_ctrls1.perBankRdBursts::5               52                       # Per bank write bursts
system.mem_ctrls1.perBankRdBursts::6               10                       # Per bank write bursts
system.mem_ctrls1.perBankRdBursts::7             8669                       # Per bank write bursts
system.mem_ctrls1.perBankRdBursts::8                0                       # Per bank write bursts
system.mem_ctrls1.perBankRdBursts::9               15                       # Per bank write bursts
system.mem_ctrls1.perBankRdBursts::10             105                       # Per bank write bursts
system.mem_ctrls1.perBankRdBursts::11             241                       # Per bank write bursts
system.mem_ctrls1.perBankRdBursts::12            1094                       # Per bank write bursts
system.mem_ctrls1.perBankRdBursts::13             613                       # Per bank write bursts
system.mem_ctrls1.perBankRdBursts::14            1878                       # Per bank write bursts
system.mem_ctrls1.perBankRdBursts::15               0                       # Per bank write bursts
system.mem_ctrls1.perBankWrBursts::0                0                       # Per bank write bursts
system.mem_ctrls1.perBankWrBursts::1                0                       # Per bank write bursts
system.mem_ctrls1.perBankWrBursts::2                0                       # Per bank write bursts
system.mem_ctrls1.perBankWrBursts::3               20                       # Per bank write bursts
system.mem_ctrls1.perBankWrBursts::4                8                       # Per bank write bursts
system.mem_ctrls1.perBankWrBursts::5                4                       # Per bank write bursts
system.mem_ctrls1.perBankWrBursts::6                0                       # Per bank write bursts
system.mem_ctrls1.perBankWrBursts::7                0                       # Per bank write bursts
system.mem_ctrls1.perBankWrBursts::8                0                       # Per bank write bursts
system.mem_ctrls1.perBankWrBursts::9                0                       # Per bank write bursts
system.mem_ctrls1.perBankWrBursts::10               0                       # Per bank write bursts
system.mem_ctrls1.perBankWrBursts::11               0                       # Per bank write bursts
system.mem_ctrls1.perBankWrBursts::12               0                       # Per bank write bursts
system.mem_ctrls1.perBankWrBursts::13               0                       # Per bank write bursts
system.mem_ctrls1.perBankWrBursts::14               0                       # Per bank write bursts
system.mem_ctrls1.perBankWrBursts::15               0                       # Per bank write bursts
system.mem_ctrls1.avgRdQLen                      1.18                       # Average read queue length when enqueuing
system.mem_ctrls1.avgWrQLen                     22.53                       # Average write queue length when enqueuing
system.mem_ctrls1.totQLat                   224946250                       # Total ticks spent queuing
system.mem_ctrls1.totBusLat                 208965000                       # Total ticks spent in databus transfers
system.mem_ctrls1.totMemAccLat             1008565000                       # Total ticks spent from burst creation until serviced by the DRAM
system.mem_ctrls1.avgQLat                     5382.39                       # Average queueing delay per DRAM burst
system.mem_ctrls1.avgBusLat                   5000.00                       # Average bus latency per DRAM burst
system.mem_ctrls1.avgMemAccLat               24132.39                       # Average memory access latency per DRAM burst
system.mem_ctrls1.numRdRetry                        0                       # Number of times read queue was full causing retry
system.mem_ctrls1.numWrRetry                        0                       # Number of times write queue was full causing retry
system.mem_ctrls1.readRowHits                   35393                       # Number of row buffer hits during reads
system.mem_ctrls1.writeRowHits                     29                       # Number of row buffer hits during writes
system.mem_ctrls1.readRowHitRate                84.69                       # Row buffer hit rate for reads
system.mem_ctrls1.writeRowHitRate               49.15                       # Row buffer hit rate for writes
system.mem_ctrls1.readPktSize::0                 2551                       # Read request sizes (log2)
system.mem_ctrls1.readPktSize::1                    9                       # Read request sizes (log2)
system.mem_ctrls1.readPktSize::2                10327                       # Read request sizes (log2)
system.mem_ctrls1.readPktSize::3                 4285                       # Read request sizes (log2)
system.mem_ctrls1.readPktSize::4                    0                       # Read request sizes (log2)
system.mem_ctrls1.readPktSize::5                    0                       # Read request sizes (log2)
system.mem_ctrls1.readPktSize::6                25504                       # Read request sizes (log2)
system.mem_ctrls1.writePktSize::0                 267                       # Write request sizes (log2)
system.mem_ctrls1.writePktSize::1                  91                       # Write request sizes (log2)
system.mem_ctrls1.writePktSize::2               14079                       # Write request sizes (log2)
system.mem_ctrls1.writePktSize::3                  81                       # Write request sizes (log2)
system.mem_ctrls1.writePktSize::4                   0                       # Write request sizes (log2)
system.mem_ctrls1.writePktSize::5                   0                       # Write request sizes (log2)
system.mem_ctrls1.writePktSize::6                   0                       # Write request sizes (log2)
system.mem_ctrls1.rdQLenPdf::0                  33875                       # What read queue length does an incoming req see
system.mem_ctrls1.rdQLenPdf::1                   7812                       # What read queue length does an incoming req see
[...]
system.mem_ctrls1.wrQLenPdf::7                      1                       # What write queue length does an incoming req see
system.mem_ctrls1.wrQLenPdf::8                      1                       # What write queue length does an incoming req see
system.mem_ctrls1.wrQLenPdf::9                      1                       # What write queue length does an incoming req see
system.mem_ctrls1.wrQLenPdf::10                     1                       # What write queue length does an incoming req see
system.mem_ctrls1.wrQLenPdf::11                     1                       # What write queue length does an incoming req see
system.mem_ctrls1.wrQLenPdf::12                     1                       # What write queue length does an incoming req see
system.mem_ctrls1.wrQLenPdf::13                     1                       # What write queue length does an incoming req see
system.mem_ctrls1.wrQLenPdf::14                     1                       # What write queue length does an incoming req see
system.mem_ctrls1.wrQLenPdf::15                     1                       # What write queue length does an incoming req see
system.mem_ctrls1.wrQLenPdf::16                     1                       # What write queue length does an incoming req see
system.mem_ctrls1.wrQLenPdf::17                     3                       # What write queue length does an incoming req see
system.mem_ctrls1.wrQLenPdf::18                     3                       # What write queue length does an incoming req see
system.mem_ctrls1.wrQLenPdf::19                     3                       # What write queue length does an incoming req see
system.mem_ctrls1.wrQLenPdf::20                     3                       # What write queue length does an incoming req see
system.mem_ctrls1.wrQLenPdf::21                     3                       # What write queue length does an incoming req see
system.mem_ctrls1.wrQLenPdf::22                     3                       # What write queue length does an incoming req see
system.mem_ctrls1.wrQLenPdf::23                     3                       # What write queue length does an incoming req see
system.mem_ctrls1.wrQLenPdf::24                     3                       # What write queue length does an incoming req see
system.mem_ctrls1.wrQLenPdf::25                     3                       # What write queue length does an incoming req see
system.mem_ctrls1.wrQLenPdf::26                     3                       # What write queue length does an incoming req see
system.mem_ctrls1.wrQLenPdf::27                     2                       # What write queue length does an incoming req see
system.mem_ctrls1.wrQLenPdf::28                     2                       # What write queue length does an incoming req see
system.mem_ctrls1.wrQLenPdf::29                     2                       # What write queue length does an incoming req see
system.mem_ctrls1.wrQLenPdf::30                     2                       # What write queue length does an incoming req see
system.mem_ctrls1.wrQLenPdf::31                     2                       # What write queue length does an incoming req see
system.mem_ctrls1.wrQLenPdf::32                     2                       # What write queue length does an incoming req see
system.mem_ctrls1.wrQLenPdf::33                     0                       # What write queue length does an incoming req see
system.mem_ctrls1.wrQLenPdf::34                     0                       # What write queue length does an incoming req see
system.mem_ctrls1.wrQLenPdf::35                     0                       # What write queue length does an incoming req see
system.mem_ctrls1.wrQLenPdf::36                     0                       # What write queue length does an incoming req see
system.mem_ctrls1.wrQLenPdf::37                     0                       # What write queue length does an incoming req see
system.mem_ctrls1.wrQLenPdf::38                     0                       # What write queue length does an incoming req see
system.mem_ctrls1.wrQLenPdf::39                     0                       # What write queue length does an incoming req see
system.mem_ctrls1.wrQLenPdf::40                     0                       # What write queue length does an incoming req see
system.mem_ctrls1.wrQLenPdf::41                     0                       # What write queue length does an incoming req see
system.mem_ctrls1.wrQLenPdf::42                     0                       # What write queue length does an incoming req see
system.mem_ctrls1.wrQLenPdf::43                     0                       # What write queue length does an incoming req see
system.mem_ctrls1.wrQLenPdf::44                     0                       # What write queue length does an incoming req see
system.mem_ctrls1.wrQLenPdf::45                     0                       # What write queue length does an incoming req see
system.mem_ctrls1.wrQLenPdf::46                     0                       # What write queue length does an incoming req see
system.mem_ctrls1.wrQLenPdf::47                     0                       # What write queue length does an incoming req see
system.mem_ctrls1.wrQLenPdf::48                     0                       # What write queue length does an incoming req see
system.mem_ctrls1.wrQLenPdf::49                     0                       # What write queue length does an incoming req see
system.mem_ctrls1.wrQLenPdf::50                     0                       # What write queue length does an incoming req see
system.mem_ctrls1.wrQLenPdf::51                     0                       # What write queue length does an incoming req see
system.mem_ctrls1.wrQLenPdf::52                     0                       # What write queue length does an incoming req see
system.mem_ctrls1.wrQLenPdf::53                     0                       # What write queue length does an incoming req see
system.mem_ctrls1.wrQLenPdf::54                     0                       # What write queue length does an incoming req see
system.mem_ctrls1.wrQLenPdf::55                     0                       # What write queue length does an incoming req see
system.mem_ctrls1.wrQLenPdf::56                     0                       # What write queue length does an incoming req see
system.mem_ctrls1.wrQLenPdf::57                     0                       # What write queue length does an incoming req see
system.mem_ctrls1.wrQLenPdf::58                     0                       # What write queue length does an incoming req see
system.mem_ctrls1.wrQLenPdf::59                     0                       # What write queue length does an incoming req see
system.mem_ctrls1.wrQLenPdf::60                     0                       # What write queue length does an incoming req see
system.mem_ctrls1.wrQLenPdf::61                     0                       # What write queue length does an incoming req see
system.mem_ctrls1.wrQLenPdf::62                     0                       # What write queue length does an incoming req see
system.mem_ctrls1.wrQLenPdf::63                     0                       # What write queue length does an incoming req see
system.mem_ctrls1.bytesPerActivate::samples         6398                       # Bytes accessed per row activation
system.mem_ctrls1.bytesPerActivate::mean   418.180681                       # Bytes accessed per row activation
system.mem_ctrls1.bytesPerActivate::gmean   265.873708                       # Bytes accessed per row activation
system.mem_ctrls1.bytesPerActivate::stdev   363.505468                       # Bytes accessed per row activation
system.mem_ctrls1.bytesPerActivate::0-127         1348     21.07%     21.07% # Bytes accessed per row activation
system.mem_ctrls1.bytesPerActivate::128-255         1441     22.52%     43.59% # Bytes accessed per row activation
system.mem_ctrls1.bytesPerActivate::256-383          991     15.49%     59.08% # Bytes accessed per row activation
system.mem_ctrls1.bytesPerActivate::384-511          534      8.35%     67.43% # Bytes accessed per row activation
system.mem_ctrls1.bytesPerActivate::512-639          322      5.03%     72.46% # Bytes accessed per row activation
system.mem_ctrls1.bytesPerActivate::640-767          178      2.78%     75.24% # Bytes accessed per row activation
system.mem_ctrls1.bytesPerActivate::768-895          143      2.24%     77.48% # Bytes accessed per row activation
system.mem_ctrls1.bytesPerActivate::896-1023          142      2.22%     79.70% # Bytes accessed per row activation
system.mem_ctrls1.bytesPerActivate::1024-1151         1299     20.30%    100.00% # Bytes accessed per row activation
system.mem_ctrls1.bytesPerActivate::total         6398                       # Bytes accessed per row activation
system.mem_ctrls1.rdPerTurnAround::samples            2                       # Reads before turning the bus around for writes
system.mem_ctrls1.rdPerTurnAround::mean    948.500000                       # Reads before turning the bus around for writes
system.mem_ctrls1.rdPerTurnAround::gmean   936.803074                       # Reads before turning the bus around for writes
system.mem_ctrls1.rdPerTurnAround::stdev   210.010714                       # Reads before turning the bus around for writes
system.mem_ctrls1.rdPerTurnAround::768-831            1     50.00%     50.00% # Reads before turning the bus around for writes
system.mem_ctrls1.rdPerTurnAround::1088-1151            1     50.00%    100.00% # Reads before turning the bus around for writes
system.mem_ctrls1.rdPerTurnAround::total            2                       # Reads before turning the bus around for writes
system.mem_ctrls1.wrPerTurnAround::samples            2                       # Writes before turning the bus around for reads
system.mem_ctrls1.wrPerTurnAround::mean            16                       # Writes before turning the bus around for reads
system.mem_ctrls1.wrPerTurnAround::gmean    16.000000                       # Writes before turning the bus around for reads
system.mem_ctrls1.wrPerTurnAround::16               2    100.00%    100.00% # Writes before turning the bus around for reads
system.mem_ctrls1.wrPerTurnAround::total            2                       # Writes before turning the bus around for reads
system.mem_ctrls1.bytesReadDRAM               2674752                       # Total number of bytes read from DRAM
system.mem_ctrls1.bytesReadWrQ                  56512                       # Total number of bytes read from write queue
system.mem_ctrls1.bytesWritten                   2048                       # Total number of bytes written to DRAM
system.mem_ctrls1.bytesReadSys                1710413                       # Total read bytes from the system interface side
system.mem_ctrls1.bytesWrittenSys               57412                       # Total written bytes from the system interface side
system.mem_ctrls1.avgRdBW                      888.94                       # Average DRAM read bandwidth in MiByte/s
system.mem_ctrls1.avgWrBW                        0.68                       # Average achieved write bandwidth in MiByte/s
system.mem_ctrls1.avgRdBWSys                   568.45                       # Average system read bandwidth in MiByte/s
system.mem_ctrls1.avgWrBWSys                    19.08                       # Average system write bandwidth in MiByte/s
system.mem_ctrls1.peakBW                     12800.00                       # Theoretical peak bandwidth in MiByte/s
system.mem_ctrls1.busUtil                        6.95                       # Data bus utilization in percentage
system.mem_ctrls1.busUtilRead                    6.94                       # Data bus utilization in percentage for reads
system.mem_ctrls1.busUtilWrite                   0.01                       # Data bus utilization in percentage for writes
system.mem_ctrls1.totGap                   3008927750                       # Total gap between requests
system.mem_ctrls1.avgGap                     52609.15                       # Average gap between requests
system.mem_ctrls1.masterReadBytes::.cpu_cluster.cpus.inst      1632256                       # Per-master bytes read from memory
system.mem_ctrls1.masterReadBytes::.cpu_cluster.cpus.data        74625                       # Per-master bytes read from memory
system.mem_ctrls1.masterWriteBytes::.cpu_cluster.cpus.data          132                       # Per-master bytes write to memory
system.mem_ctrls1.masterReadRate::.cpu_cluster.cpus.inst 542470849.672898530960                       # Per-master bytes read from memory rate (Bytes/sec)
system.mem_ctrls1.masterReadRate::.cpu_cluster.cpus.data 24801187.532372403890                       # Per-master bytes read from memory rate (Bytes/sec)
system.mem_ctrls1.masterWriteRate::.cpu_cluster.cpus.data 43869.437243191387                       # Per-master bytes write to memory rate (Bytes/sec)
system.mem_ctrls1.masterReadAccesses::.cpu_cluster.cpus.inst        25504                       # Per-master read serviced memory accesses
system.mem_ctrls1.masterReadAccesses::.cpu_cluster.cpus.data        17172                       # Per-master read serviced memory accesses
system.mem_ctrls1.masterWriteAccesses::.cpu_cluster.cpus.data        14518                       # Per-master write serviced memory accesses
system.mem_ctrls1.masterReadTotalLat::.cpu_cluster.cpus.inst    592977250                       # Per-master read total memory access latency
system.mem_ctrls1.masterReadTotalLat::.cpu_cluster.cpus.data    415587750                       # Per-master read total memory access latency
system.mem_ctrls1.masterWriteTotalLat::.cpu_cluster.cpus.data   2497813750                       # Per-master write total memory access latency
system.mem_ctrls1.masterReadAvgLat::.cpu_cluster.cpus.inst     23250.36                       # Per-master read average memory access latency
system.mem_ctrls1.masterReadAvgLat::.cpu_cluster.cpus.data     24201.48                       # Per-master read average memory access latency
system.mem_ctrls1.masterWriteAvgLat::.cpu_cluster.cpus.data    172049.44                       # Per-master write average memory access latency
system.mem_ctrls1.pageHitRate                   84.64                       # Row buffer hit rate, read and write combined
system.mem_ctrls1.rank1.actEnergy             6004740                       # Energy for activate commands per rank (pJ)
system.mem_ctrls1.rank1.preEnergy             3191595                       # Energy for precharge commands per rank (pJ)
system.mem_ctrls1.rank1.readEnergy           28174440                       # Energy for read commands per rank (pJ)
system.mem_ctrls1.rank1.writeEnergy                 0                       # Energy for write commands per rank (pJ)
system.mem_ctrls1.rank1.refreshEnergy    237251040.000000                       # Energy for refresh commands per rank (pJ)
system.mem_ctrls1.rank1.actBackEnergy      1169570460                       # Energy for active background per rank (pJ)
system.mem_ctrls1.rank1.preBackEnergy       170527200                       # Energy for precharge background per rank (pJ)
system.mem_ctrls1.rank1.actPowerDownEnergy            0                       # Energy for active power-down per rank (pJ)
system.mem_ctrls1.rank1.prePowerDownEnergy            0                       # Energy for precharge power-down per rank (pJ)
system.mem_ctrls1.rank1.selfRefreshEnergy            0                       # Energy for self refresh per rank (pJ)
system.mem_ctrls1.rank1.totalEnergy        1614719475                       # Total energy per rank (pJ)
system.mem_ctrls1.rank1.averagePower       536.642687                       # Core power per rank (mW)
system.mem_ctrls1.rank1.totalIdleTime               0                       # Total Idle time Per DRAM Rank
system.mem_ctrls1.rank1.memoryStateTime::IDLE    433236250                       # Time in different power states
system.mem_ctrls1.rank1.memoryStateTime::REF    100360000                       # Time in different power states
system.mem_ctrls1.rank1.memoryStateTime::SREF            0                       # Time in different power states
system.mem_ctrls1.rank1.memoryStateTime::PRE_PDN            0                       # Time in different power states
system.mem_ctrls1.rank1.memoryStateTime::ACT   2475332250                       # Time in different power states
system.mem_ctrls1.rank1.memoryStateTime::ACT_PDN            0                       # Time in different power states
system.mem_ctrls1.rank0.actEnergy            39712680                       # Energy for activate commands per rank (pJ)
system.mem_ctrls1.rank0.preEnergy            21088815                       # Energy for precharge commands per rank (pJ)
system.mem_ctrls1.rank0.readEnergy          270227580                       # Energy for read commands per rank (pJ)
system.mem_ctrls1.rank0.writeEnergy            167040                       # Energy for write commands per rank (pJ)
system.mem_ctrls1.rank0.refreshEnergy    237251040.000000                       # Energy for refresh commands per rank (pJ)
system.mem_ctrls1.rank0.actBackEnergy      1356934590                       # Energy for active background per rank (pJ)
system.mem_ctrls1.rank0.preBackEnergy        12746880                       # Energy for precharge background per rank (pJ)
system.mem_ctrls1.rank0.actPowerDownEnergy            0                       # Energy for active power-down per rank (pJ)
system.mem_ctrls1.rank0.prePowerDownEnergy            0                       # Energy for precharge power-down per rank (pJ)
system.mem_ctrls1.rank0.selfRefreshEnergy            0                       # Energy for self refresh per rank (pJ)
system.mem_ctrls1.rank0.totalEnergy        1938128625                       # Total energy per rank (pJ)
system.mem_ctrls1.rank0.averagePower       644.125849                       # Core power per rank (mW)
system.mem_ctrls1.rank0.totalIdleTime               0                       # Total Idle time Per DRAM Rank
system.mem_ctrls1.rank0.memoryStateTime::IDLE     21987500                       # Time in different power states
system.mem_ctrls1.rank0.memoryStateTime::REF    100360000                       # Time in different power states
system.mem_ctrls1.rank0.memoryStateTime::SREF            0                       # Time in different power states
system.mem_ctrls1.rank0.memoryStateTime::PRE_PDN            0                       # Time in different power states
system.mem_ctrls1.rank0.memoryStateTime::ACT   2886581000                       # Time in different power states
system.mem_ctrls1.rank0.memoryStateTime::ACT_PDN            0                       # Time in different power states
system.clk_domain.clock                          1000                       # Clock period in ticks
system.cpu_cluster.voltage_domain.voltage     1.200000                       # Voltage in Volts
system.cpu_cluster.clk_domain.clock               250                       # Clock period in ticks
system.cpu_cluster.cpus.pwrStateResidencyTicks::ON   3008928500                       # Cumulative time (in ticks) in various power states
system.cpu_cluster.cpus.dtb.walker.pwrStateResidencyTicks::UNDEFINED   3008928500                       # Cumulative time (in ticks) in various power states
system.cpu_cluster.cpus.dtb.stage2_mmu.stage2_tlb.walker.pwrStateResidencyTicks::UNDEFINED   3008928500                       # Cumulative time (in ticks) in various power states
system.cpu_cluster.cpus.itb.walker.pwrStateResidencyTicks::UNDEFINED   3008928500                       # Cumulative time (in ticks) in various power states
system.cpu_cluster.cpus.itb.stage2_mmu.stage2_tlb.walker.pwrStateResidencyTicks::UNDEFINED   3008928500                       # Cumulative time (in ticks) in various power states

---------- End Simulation Statistics   ----------
